<?xml version="1.0" encoding="UTF-8"?>

<!-- generated on 04/03/21 23:28:15 by Eclipse SUMO duarouter Version 1.8.0
<configuration xmlns:xsi="http://www.w3.org/2001/XMLSchema-instance" xsi:noNamespaceSchemaLocation="http://sumo.dlr.de/xsd/duarouterConfiguration.xsd">

    <input>
        <net-file value="C:\Users\Arkonaire\Sumo\2021-04-03-23-27-18\osm.net.xml"/>
        <route-files value="C:\Users\Arkonaire\Sumo\2021-04-03-23-27-18\osm.rail_urban.trips.xml"/>
    </input>

    <output>
        <output-file value="C:\Users\Arkonaire\Sumo\2021-04-03-23-27-18\osm.rail_urban.trips.xml.tmp"/>
        <write-trips value="true"/>
    </output>

    <time>
        <begin value="0"/>
        <end value="3600"/>
    </time>

    <report>
        <no-warnings value="true"/>
        <ignore-errors value="true"/>
        <no-step-log value="true"/>
    </report>

</configuration>
-->

<routes xmlns:xsi="http://www.w3.org/2001/XMLSchema-instance" xsi:noNamespaceSchemaLocation="http://sumo.dlr.de/xsd/routes_file.xsd">
    <vType id="urban_rail_urban" vClass="rail_urban"/>
    <trip id="urban0" type="urban_rail_urban" depart="0.00" departLane="best" departSpeed="max" from="32590433#0" to="25946685#2"/>
    <trip id="urban4" type="urban_rail_urban" depart="328.43" departLane="best" departSpeed="max" from="4471821" to="32590438#1"/>
    <trip id="urban12" type="urban_rail_urban" depart="985.28" departLane="best" departSpeed="max" from="248099628" to="4699210#4"/>
    <trip id="urban28" type="urban_rail_urban" depart="2298.99" departLane="best" departSpeed="max" from="4471821" to="32590438#1"/>
</routes>
