<?xml version="1.0" encoding="UTF-8"?>

<!-- generated on 04/03/21 23:28:04 by Eclipse SUMO polyconvert Version 1.8.0
<configuration xmlns:xsi="http://www.w3.org/2001/XMLSchema-instance" xsi:noNamespaceSchemaLocation="http://sumo.dlr.de/xsd/polyconvertConfiguration.xsd">

    <input>
        <net-file value="osm.net.xml"/>
        <osm-files value="osm_bbox.osm.xml"/>
        <osm.keep-full-type value="true"/>
        <type-file value="D:\Operations\Eclipse\Sumo\data\typemap\osmPolyconvert.typ.xml"/>
    </input>

    <output>
        <output-file value="osm.poly.xml"/>
    </output>

    <processing>
        <poi-layer-offset value="5"/>
    </processing>

    <report>
        <verbose value="true"/>
    </report>

</configuration>
-->

<additional xmlns:xsi="http://www.w3.org/2001/XMLSchema-instance" xsi:noNamespaceSchemaLocation="http://sumo.dlr.de/xsd/additional_file.xsd">
    <location netOffset="-390301.73,-5819272.32" convBoundary="-1313.56,-3891.46,3675.59,3986.87" origBoundary="13.365446,52.477280,13.436728,52.548335" projParameter="+proj=utm +zone=33 +ellps=WGS84 +datum=WGS84 +units=m +no_defs"/>

    <poly id="100575040" type="leisure.park" color="207,245,201" fill="1" layer="-2.00" shape="1041.936765,1349.518671 1041.043399,1349.327070 1035.038861,1347.891319 1029.087356,1346.398760 1036.124440,1319.736578 1044.187805,1290.993027 1021.227144,1285.204317 1023.106242,1273.233793 1014.456132,1271.867906 1009.230830,1273.742050 1004.503612,1276.651141 1007.129575,1282.735306 999.182986,1285.849394 992.926074,1288.336220 990.576025,1282.757808 980.323460,1287.781435 981.892669,1289.371230 981.454357,1291.639871 979.425135,1292.564007 978.825391,1295.815464 972.544096,1293.840678 972.812952,1292.499392 961.184850,1295.483862 952.493663,1297.768862 951.734531,1299.343590 948.098036,1300.325689 946.058034,1299.235976 942.140260,1286.025461 942.800140,1285.788253 941.964890,1282.713320 940.328969,1278.120557 928.941197,1283.369804 916.370851,1289.157220 913.222569,1290.729392 910.851536,1293.986827 914.109969,1299.511640 908.817545,1302.333234 909.444783,1303.376425 906.838732,1311.635394 904.366997,1319.524169 902.293491,1326.091036 898.321062,1324.476768 893.898734,1327.356941 911.772656,1344.307807 917.424730,1345.762366 925.323987,1347.856927 932.183948,1349.607373 937.952074,1351.092761 942.949428,1352.406104 948.731362,1353.902325 965.176248,1358.166226 981.828685,1362.303169 998.631322,1366.481344 1004.556173,1367.996712 1009.880345,1369.358506 1015.620793,1370.822343 1022.248557,1372.511300 1027.286567,1373.823826 1033.817868,1375.448174 1034.882798,1375.724988 1036.740848,1368.617709 1041.936765,1349.518671"/>
    <poly id="100575042" type="building.residential" color="255,230,230" fill="1" layer="-1.00" shape="1010.010262,1392.946205 1015.620793,1370.822343 1009.880345,1369.358506 1009.265158,1371.608815 1009.709559,1371.754738 1008.332305,1377.282360 1008.759199,1377.862648 1008.058390,1378.701649 1006.759602,1378.285373 1006.897488,1377.770441 1003.108556,1376.775166 1002.969319,1377.534936 1001.235382,1377.083810 1001.042827,1376.053215 1001.937906,1375.710644 1003.208588,1370.274407 1003.925574,1370.469917 1004.556173,1367.996712 998.631322,1366.481344 996.510759,1374.907527 993.094494,1388.559081 1010.010262,1392.946205"/>
    <poly id="100950874" type="building.commercial" color="255,230,230" fill="1" layer="-1.00" shape="1346.591041,1056.610462 1327.261240,1048.069336 1323.116371,1037.745625 1334.849327,1017.378411 1348.204252,1024.605173 1346.591041,1056.610462"/>
    <poly id="100950876" type="building.commercial" color="255,230,230" fill="1" layer="-1.00" shape="1384.928570,998.377354 1372.025787,1022.331146 1371.927971,1065.163436 1371.996465,1070.714593 1373.365520,1074.612351 1375.321247,1078.029774 1377.958481,1081.265208 1382.953956,1085.249670 1386.131180,1086.815153 1405.943318,1094.466757 1437.768451,1026.863995 1384.928570,998.377354"/>
    <poly id="100950877" type="building.commercial" color="255,230,230" fill="1" layer="-1.00" shape="1416.778103,1033.470501 1397.083627,1075.345177 1390.831735,1073.168904 1388.155302,1071.536703 1386.551583,1068.690126 1385.500629,1063.216337 1387.209909,1031.553900 1412.610749,1031.637574 1416.778103,1033.470501"/>
    <poly id="100950878" type="building.commercial" color="255,230,230" fill="1" layer="-1.00" shape="1355.563269,1074.672346 1360.884207,1060.845426 1362.302733,1028.933473 1362.223155,1025.029446 1360.680572,1020.345470 1358.193956,1016.249886 1354.241305,1012.464927 1350.291743,1010.660616 1328.801688,999.285225 1309.547291,1033.416848 1307.774102,1039.476128 1307.908157,1045.226132 1309.599703,1051.731723 1316.454200,1059.358211 1355.563269,1074.672346"/>
    <poly id="101309884" type="landuse.commercial" color="209,209,204" fill="1" layer="-3.00" shape="2034.843322,1376.481370 1983.911286,1404.763861 1983.047021,1405.584057 1982.839062,1406.311923 1983.174912,1407.695480 2014.520008,1475.718698 2032.935920,1515.984938 2113.973293,1553.483947 2154.474626,1532.687022 2155.712776,1528.186554 2093.322229,1450.384766 2046.279026,1393.132693 2034.843322,1376.481370"/>
    <poly id="102864701" type="building.residential" color="255,230,230" fill="1" layer="-1.00" shape="1526.073820,1413.977684 1516.892697,1402.073696 1516.641112,1401.745426 1519.223899,1399.763291 1519.475484,1400.091560 1520.022903,1399.678873 1519.784885,1399.350304 1522.354106,1397.368470 1522.605692,1397.696740 1523.133251,1397.306747 1522.881420,1396.967355 1525.450645,1394.985522 1525.716288,1395.335737 1526.270246,1394.911778 1526.004602,1394.561564 1528.580859,1392.590705 1528.846502,1392.940920 1530.682543,1391.565050 1539.562068,1403.642639 1532.100728,1409.371252 1531.954339,1409.196444 1530.306038,1410.468019 1530.438613,1410.632004 1528.256216,1412.304844 1526.073820,1413.977684"/>
    <poly id="102864702" type="building.residential" color="255,230,230" fill="1" layer="-1.00" shape="1520.106816,1440.648819 1526.480783,1435.778777 1518.004017,1424.727179 1517.229888,1425.322917 1514.855124,1422.281913 1515.209007,1422.018160 1515.362426,1422.203939 1517.237679,1420.760431 1517.118671,1420.596147 1518.766720,1419.313446 1518.913355,1419.499375 1526.073820,1413.977684 1516.892697,1402.073696 1500.594020,1414.529510 1520.106816,1440.648819"/>
    <poly id="104786904" type="natural.grassland" color="140,196,107" fill="1" layer="-4.00" shape="706.887685,694.958627 712.224925,633.114817 692.828166,631.454475 687.484382,693.298461 706.887685,694.958627"/>
    <poly id="104786906" type="building.yes" color="255,230,230" fill="1" layer="-1.00" shape="721.079372,799.498627 784.403615,811.087066 777.398968,821.179829 773.711052,825.968842 769.237803,831.765686 767.331254,834.245045 753.232716,833.323480 741.853173,832.575145 742.453936,825.406704 763.961131,827.075910 765.291583,820.058158 725.432808,813.333571 723.915980,814.413321 722.066913,823.746049 723.097751,824.924897 722.896135,825.930871 722.049699,826.328046 721.828480,831.028835 718.341341,830.805984 715.037384,830.579059 715.438632,828.478132 719.297303,809.096929 720.906148,799.035121 721.079372,799.498627"/>
    <poly id="104786907" type="building.residential" color="255,230,230" fill="1" layer="-1.00" shape="749.852308,781.143265 748.577129,794.001805 708.887191,786.639313 711.985836,754.455971 725.613896,755.577064 726.809904,741.907961 740.117631,742.969457 738.980341,755.313059 731.162541,754.485504 729.877831,768.134324 737.773314,768.793234 737.312179,774.000103 736.847519,779.963730 749.852308,781.143265"/>
    <poly id="104786910" type="building.yes" color="255,230,230" fill="1" layer="-1.00" shape="827.565663,807.935249 840.237105,791.373851 824.141510,778.790193 824.847433,777.873161 824.066929,777.267364 827.141272,773.270966 827.852447,773.811539 828.795942,772.588781 832.752986,775.627686 833.511705,774.642717 850.293162,787.544991 857.552771,778.225608 867.606549,781.318224 847.436364,807.437930 839.948261,817.163004 827.565663,807.935249"/>
    <poly id="104786915" type="building.yes" color="255,230,230" fill="1" layer="-1.00" shape="825.078238,801.080281 811.550559,798.665880 810.433646,804.911062 823.936148,807.415041 825.078238,801.080281"/>
    <poly id="104786916" type="building.yes" color="255,230,230" fill="1" layer="-1.00" shape="853.371704,733.340630 848.531520,750.428970 886.612191,761.433701 891.413125,747.462011 888.747959,746.352820 886.193661,744.428851 883.491447,742.263361 879.791664,740.720930 865.480964,736.676882 853.371704,733.340630"/>
    <poly id="104991245" type="building.yes" color="255,230,230" fill="1" layer="-1.00" shape="732.504732,1116.515902 745.307457,1112.314108 747.171383,1117.992250 747.609381,1117.848973 753.040748,1134.386229 753.869748,1134.122977 758.012213,1146.727469 757.143005,1147.013869 762.582086,1163.595472 748.849472,1168.096106 746.060887,1159.600985 745.468097,1159.803344 742.555760,1150.932638 743.148551,1150.730279 739.551482,1139.760556 739.005683,1139.939615 736.129472,1131.168257 736.742618,1130.965444 735.315676,1126.624028 733.954243,1122.481452 734.405561,1122.326751 732.504732,1116.515902"/>
    <poly id="104991246" type="building.yes" color="255,230,230" fill="1" layer="-1.00" shape="635.669163,1160.467073 634.386640,1156.823509 649.606434,1151.443733 650.900534,1154.998021 635.669163,1160.467073"/>
    <poly id="105187865" type="building.office" color="255,230,230" fill="1" layer="-1.00" shape="245.611677,680.441799 344.030463,687.946693 342.820748,699.435208 336.960158,755.260080 334.996774,776.769208 333.022079,798.378741 195.283420,786.957095 185.136941,786.115709 149.216162,783.135642 156.266095,706.530724 191.632147,709.267329 190.893949,717.540578 165.780159,715.509412 163.684713,740.793874 188.696357,742.816181 188.168170,749.248666 187.740294,754.399225 165.810357,752.675217 163.718986,777.837186 185.603061,779.640100 186.538189,768.335714 197.039245,769.247070 196.079014,780.340588 211.549028,781.563730 212.669784,767.629068 223.775161,768.549227 224.207372,763.287299 246.220884,765.109847 245.418446,774.764354 309.302556,780.035928 313.529168,729.177063 324.403181,730.069236 325.516341,716.691166 275.865089,712.592455 276.785062,701.510988 262.061883,700.304327 259.991653,725.220952 242.017760,723.742034 244.831384,689.873256 245.611677,680.441799"/>
    <poly id="105187865#1" type="landuse.commercial" color="209,209,204" fill="1" layer="-3.00" shape="245.611677,680.441799 344.030463,687.946693 342.820748,699.435208 336.960158,755.260080 334.996774,776.769208 333.022079,798.378741 195.283420,786.957095 185.136941,786.115709 149.216162,783.135642 156.266095,706.530724 191.632147,709.267329 190.893949,717.540578 165.780159,715.509412 163.684713,740.793874 188.696357,742.816181 188.168170,749.248666 187.740294,754.399225 165.810357,752.675217 163.718986,777.837186 185.603061,779.640100 186.538189,768.335714 197.039245,769.247070 196.079014,780.340588 211.549028,781.563730 212.669784,767.629068 223.775161,768.549227 224.207372,763.287299 246.220884,765.109847 245.418446,774.764354 309.302556,780.035928 313.529168,729.177063 324.403181,730.069236 325.516341,716.691166 275.865089,712.592455 276.785062,701.510988 262.061883,700.304327 259.991653,725.220952 242.017760,723.742034 244.831384,689.873256 245.611677,680.441799"/>
    <poly id="105210597" type="building.residential" color="255,230,230" fill="1" layer="-1.00" shape="1443.271573,1436.660733 1480.761924,1405.909911 1471.915791,1397.192219 1447.694981,1416.321836 1444.230887,1412.514888 1438.627211,1417.534922 1437.104205,1415.877200 1431.204805,1420.414167 1431.974373,1421.454273 1435.514381,1426.238764 1443.271573,1436.660733"/>
    <poly id="105733615" type="building.yes" color="255,230,230" fill="1" layer="-1.00" shape="357.252482,1183.445160 358.686913,1165.308393 371.607248,1166.088181 369.902163,1185.176838 357.252482,1183.445160"/>
    <poly id="105733616" type="building.residential" color="255,230,230" fill="1" layer="-1.00" shape="303.632976,1181.671604 303.437871,1184.179692 303.243014,1186.698902 301.748043,1186.621022 281.589727,1184.812477 272.517209,1184.002581 266.770035,1183.474476 264.940406,1183.303937 257.765103,1182.651970 250.388065,1178.744108 252.932495,1173.846695 253.406560,1174.103164 255.722472,1168.698986 261.973016,1172.008880 265.869723,1172.344651 287.161034,1174.127819 287.738972,1166.881910 288.338831,1159.401829 288.534427,1156.915985 289.731157,1157.011652 302.173838,1157.979973 304.099445,1158.192893 305.604439,1158.415210 305.381946,1160.912782 305.159951,1163.432598 303.670762,1163.310077 303.409155,1166.487312 303.323965,1167.535218 302.164394,1181.559751 303.632976,1181.671604"/>
    <poly id="105733620" type="building.commercial" color="255,230,230" fill="1" layer="-1.00" shape="299.679451,1211.604381 270.411042,1209.120329 272.517209,1184.002581 281.589727,1184.812477 301.748043,1186.621022 300.710476,1199.118338 299.679451,1211.604381"/>
    <poly id="105733622" type="building.yes" color="255,230,230" fill="1" layer="-1.00" shape="362.529473,1197.570768 378.027984,1198.916157 379.003034,1186.041919 372.318937,1185.501223 372.069853,1187.721193 369.725469,1187.295042 369.902163,1185.176838 357.252482,1183.445160 356.376257,1195.271195 354.918202,1196.238477 357.015244,1198.962446 362.356915,1199.266028 362.529473,1197.570768"/>
    <poly id="105733628" type="building.residential" color="255,230,230" fill="1" layer="-1.00" shape="297.780590,1234.158115 268.519594,1231.696169 270.085201,1213.066813 270.411042,1209.120329 299.679451,1211.604381 299.571849,1212.864213 300.421836,1212.934246 300.157005,1215.966893 299.313802,1215.896709 298.729893,1222.875686 298.134407,1229.943944 298.977607,1230.014128 298.713027,1233.057897 297.876611,1232.987562 297.780590,1234.158115"/>
    <poly id="105733634" type="building.hotel" color="255,230,230" fill="1" layer="-1.00" shape="392.334341,1130.128189 386.953713,1129.602888 385.239150,1153.743713 372.704814,1152.621440 362.614398,1151.822973 340.656372,1150.276917 339.030803,1147.998661 341.794723,1114.932232 343.759283,1113.241465 383.674002,1116.467544 393.645350,1117.402246 393.541359,1118.216888 392.334341,1130.128189"/>
    <poly id="105733636" type="building.yes" color="255,230,230" fill="1" layer="-1.00" shape="267.999493,1237.883659 268.519594,1231.696169 297.780590,1234.158115 297.409329,1238.806655 297.038069,1243.455195 295.610903,1244.588721 284.971850,1242.011120 267.999493,1237.883659"/>
    <poly id="105733641" type="building.yes" color="255,230,230" fill="1" layer="-1.00" shape="413.703778,1119.591831 408.674095,1119.281227 393.541359,1118.216888 392.334341,1130.128189 392.231673,1130.697993 413.986900,1132.582639 414.925086,1121.701089 413.703778,1119.591831"/>
    <poly id="105733647" type="building.yes" color="255,230,230" fill="1" layer="-1.00" shape="395.972204,1200.362791 378.027984,1198.916157 379.003034,1186.041919 397.241993,1187.615512 395.972204,1200.362791"/>
    <poly id="105733649" type="building.office" color="255,230,230" fill="1" layer="-1.00" shape="280.215688,1083.826033 280.476120,1083.330596 280.867440,1082.921256 281.321558,1082.588406 281.832185,1082.354444 282.378970,1082.219822 282.941559,1082.184997 283.499850,1082.261545 284.033240,1082.438798 284.521377,1082.717211 295.009311,1093.098707 307.877828,1105.830625 308.089799,1106.204231 308.234674,1106.612719 308.312205,1107.044967 305.855863,1136.855267 304.552359,1152.641188 304.099445,1158.192893 302.173838,1157.979973 289.731157,1157.011652 288.534427,1156.915985 288.698116,1155.432345 268.636278,1144.886458 271.491147,1139.603777 258.186739,1130.754131 256.505566,1129.634423 256.298811,1129.494383 264.025955,1114.744426 280.215688,1083.826033"/>
    <poly id="105733654" type="building.residential" color="255,230,230" fill="1" layer="-1.00" shape="253.499466,1134.831471 256.298811,1129.494383 256.505566,1129.634423 258.186739,1130.754131 271.491147,1139.603777 268.636278,1144.886458 265.009788,1142.975641 263.211360,1143.594471 257.240156,1154.911243 246.337849,1149.068061 251.421697,1139.351239 253.732860,1134.948659 253.499466,1134.831471"/>
    <poly id="105733655" type="building.yes" color="255,230,230" fill="1" layer="-1.00" shape="358.686913,1165.308393 359.505585,1154.551901 362.281433,1154.846009 362.614398,1151.822973 372.704814,1152.621440 371.607248,1166.088181 358.686913,1165.308393"/>
    <poly id="105733781" type="building.apartments" color="255,230,230" fill="1" layer="-1.00" shape="545.677381,1233.366518 546.111734,1239.454798 540.027609,1239.334483 540.269820,1233.453674 528.476993,1233.004397 528.946373,1219.351411 544.582685,1219.881930 545.677381,1233.366518"/>
    <poly id="105733782" type="building.apartments" color="255,230,230" fill="1" layer="-1.00" shape="528.476993,1233.004397 528.156860,1239.042731 526.147570,1239.031888 526.435319,1246.458756 526.467554,1247.904635 520.490989,1247.737435 520.670793,1237.840928 521.571820,1237.765201 522.083965,1235.773057 520.637123,1233.590909 510.189749,1233.211827 509.300026,1235.012093 509.457090,1237.490062 509.172411,1237.507537 509.187045,1247.600008 503.430541,1247.561455 504.048657,1235.407382 504.944749,1218.673638 528.946373,1219.351411 528.476993,1233.004397"/>
    <poly id="105733783" type="building.apartments" color="255,230,230" fill="1" layer="-1.00" shape="455.456820,1260.905287 466.801599,1262.265722 468.729469,1253.454111 472.130531,1254.090418 472.413737,1252.181269 469.154393,1251.508417 470.010529,1247.594634 459.181794,1246.244934 455.456820,1260.905287"/>
    <poly id="105733786" type="building.apartments" color="255,230,230" fill="1" layer="-1.00" shape="572.826604,1272.042088 571.437986,1235.618799 569.935170,1235.796949 569.861252,1234.307490 559.918380,1234.028336 560.041837,1236.217735 556.601378,1236.249904 557.981397,1267.409998 559.439195,1267.344123 559.675086,1272.446465 572.826604,1272.042088"/>
    <poly id="105733787" type="building.apartments" color="255,230,230" fill="1" layer="-1.00" shape="569.861252,1234.307490 570.629490,1220.658979 544.582685,1219.881930 545.677381,1233.366518 559.918380,1234.028336 569.861252,1234.307490"/>
    <poly id="105733788" type="amenity.theatre" color="237,199,199" fill="1" layer="-1.00" shape="459.040778,1301.686159 466.470552,1267.202667 472.377598,1267.905479 468.067130,1301.351270 459.040778,1301.686159"/>
    <poly id="105733788#1" type="building.apartments" color="255,230,230" fill="1" layer="-1.00" shape="459.040778,1301.686159 466.470552,1267.202667 472.377598,1267.905479 468.067130,1301.351270 459.040778,1301.686159"/>
    <poly id="105733789" type="amenity.theatre" color="237,199,199" fill="1" layer="-1.00" shape="480.798052,1263.834105 466.801599,1262.265722 455.456820,1260.905287 445.160792,1308.984003 474.759771,1307.455737 480.798052,1263.834105"/>
    <poly id="105733789#1" type="building.apartments" color="255,230,230" fill="1" layer="-1.00" shape="480.798052,1263.834105 466.801599,1262.265722 455.456820,1260.905287 445.160792,1308.984003 474.759771,1307.455737 480.798052,1263.834105"/>
    <poly id="105733790" type="building.dormitory" color="255,230,230" fill="1" layer="-1.00" shape="611.373727,1241.672650 616.120222,1255.176046 600.591647,1257.647371 592.822780,1258.677293 591.677876,1253.595204 602.129693,1250.825230 600.110693,1244.894656 611.373727,1241.672650"/>
    <poly id="105733791" type="building.apartments" color="255,230,230" fill="1" layer="-1.00" shape="602.279679,1299.293993 573.887267,1300.449639 573.355348,1288.154293 599.462158,1287.071825 602.279679,1299.293993"/>
    <poly id="105733792" type="building.apartments" color="255,230,230" fill="1" layer="-1.00" shape="597.519240,1235.204559 569.861252,1234.307490 570.629490,1220.658979 604.391554,1221.653744 611.373727,1241.672650 600.110693,1244.894656 597.519240,1235.204559"/>
    <poly id="105733793" type="building.apartments" color="255,230,230" fill="1" layer="-1.00" shape="620.945776,1268.877983 630.496632,1296.050420 628.847238,1298.179159 602.279679,1299.293993 599.462158,1287.071825 597.917080,1280.173714 604.967624,1279.805207 605.250702,1287.332329 615.953598,1287.305321 615.745267,1283.437535 612.518359,1277.211162 611.777085,1277.450229 610.021158,1272.359494 608.349292,1269.214227 620.945776,1268.877983"/>
    <poly id="105733794" type="building.apartments" color="255,230,230" fill="1" layer="-1.00" shape="573.355348,1288.154293 572.826604,1272.042088 559.675086,1272.446465 556.720773,1272.668099 557.081829,1284.299592 555.961133,1285.481848 527.798887,1286.309926 528.290638,1302.278297 573.887267,1300.449639 573.355348,1288.154293"/>
    <poly id="105733795" type="building.apartments" color="255,230,230" fill="1" layer="-1.00" shape="616.120222,1255.176046 620.945776,1268.877983 608.349292,1269.214227 601.654315,1269.396764 600.591647,1257.647371 616.120222,1255.176046"/>
    <poly id="105733796" type="building.yes" color="255,230,230" fill="1" layer="-1.00" shape="527.286569,1272.767845 526.467554,1247.904635 526.435319,1246.458756 533.652106,1246.542676 534.087357,1272.460443 527.286569,1272.767845"/>
    <poly id="105733797" type="building.apartments" color="255,230,230" fill="1" layer="-1.00" shape="459.181794,1246.244934 464.537781,1218.896035 467.434807,1217.017602 504.944749,1218.673638 504.048657,1235.407382 483.617204,1234.728001 483.342716,1240.375853 481.605507,1242.217282 480.917212,1246.961894 481.321099,1247.420248 481.039130,1249.385008 472.063488,1248.650481 472.257169,1247.900607 470.010529,1247.594634 459.181794,1246.244934"/>
    <poly id="106845276" type="building.yes" color="255,230,230" fill="1" layer="-1.00" shape="500.626223,1306.556142 474.759771,1307.455737 480.798052,1263.834105 502.573915,1265.151151 500.626223,1306.556142"/>
    <poly id="109089263" type="building.residential" color="255,230,230" fill="1" layer="-1.00" shape="1095.796169,1224.206305 1097.516789,1241.805429 1099.257055,1241.622175 1100.406835,1254.905314 1099.744231,1255.020158 1098.423694,1262.193379 1104.054090,1263.281423 1112.137615,1226.547924 1111.629315,1225.969431 1112.447721,1223.391930 1110.120203,1223.721733 1109.585137,1222.854516 1095.796169,1224.206305"/>
    <poly id="109089264" type="building.residential" color="255,230,230" fill="1" layer="-1.00" shape="1077.889520,1256.562012 1083.527945,1256.481454 1083.517337,1256.003202 1088.905497,1255.961585 1088.915364,1256.406471 1094.242962,1256.388458 1092.596832,1238.476109 1091.349451,1237.624692 1078.423567,1238.412136 1077.065547,1239.610660 1077.889520,1256.562012"/>
    <poly id="113589278" type="leisure.playground" color="207,245,201" fill="1" layer="-2.00" shape="934.811705,1329.185426 932.858665,1328.038150 932.171423,1324.904293 933.114884,1321.545045 935.270583,1318.982317 938.965835,1316.062694 942.972331,1314.627264 946.572936,1314.168957 949.344582,1314.585891 951.169867,1316.704116 951.812046,1318.726212 949.896508,1322.018022 947.433193,1324.787873 945.584721,1326.820773 942.825109,1328.473316 939.594812,1329.713464 936.904961,1329.617421 934.811705,1329.185426"/>
    <poly id="11548677" type="natural.water" color="181,209,209" fill="0" layer="-4.00" shape="1857.554310,39.234296 1827.674228,22.177118 1694.972724,-47.662069 1686.653630,-55.167794 1677.054785,-62.211312 1674.350386,-64.165766 1657.958145,-76.022334 1616.147948,-104.476830 1563.068394,-131.035372 1551.410384,-135.696414 1528.365728,-145.024410 1521.353587,-147.128474 1516.731809,-148.283832 1501.161643,-152.090565 1435.791272,-159.960177 1369.466679,-156.012595 1365.200288,-155.217216 1362.668969,-154.248779 1359.613720,-152.411931 1356.665527,-150.032197 1354.563501,-148.071767 1352.970170,-146.133714 1351.712689,-144.358874 1333.277387,-108.876995 1325.630947,-94.230868 1211.682581,101.666466 1208.644699,106.730034 1206.148813,111.436645 1152.894792,217.638659 1138.300052,259.034065 1100.339676,354.949771 1092.297216,371.263117 1014.146850,522.640711 1009.425184,559.789325 981.408416,665.522632 961.127532,720.642875 961.915941,722.216621 961.991725,724.407081 948.836732,745.507823 947.053972,745.313729 937.972460,761.550302 883.939363,800.918286 801.454645,900.218644 790.480655,913.426374 778.206811,928.309932 766.085478,942.722770 707.365139,1014.100068 710.028071,1016.333099 700.467460,1028.063002 697.771599,1025.875219 695.499060,1029.898373 690.108603,1032.288400"/>
    <poly id="120456813" type="landuse.commercial" color="209,209,204" fill="1" layer="-3.00" shape="501.104043,1042.474742 505.023915,986.615471 436.126626,978.905056 435.927876,982.470345 435.523344,989.589953 435.317562,993.144272 434.697907,1003.095109 435.856198,1003.291819 434.715286,1019.085186 433.767918,1031.079700 432.999313,1031.007827 432.480859,1040.322130 464.228067,1041.305292 488.910321,1041.722909 501.104043,1042.474742"/>
    <poly id="120456814" type="amenity.university" color="237,199,199" fill="1" layer="-1.00" shape="516.711454,813.030396 516.844643,813.828619 553.923456,817.019238 560.541418,817.617310 587.772372,819.959391 592.210940,765.691078 610.481070,767.075652 619.089951,767.762991 622.016497,768.109535 631.732503,768.827879 631.148819,774.927703 629.801246,787.264897 629.363059,792.582545 629.344590,792.972425 631.501986,793.224826 630.787365,798.626525 630.752602,798.894362 629.569053,810.671522 618.155107,809.601535 616.971208,822.580493 655.725888,825.745679 656.855586,825.876314 662.240293,766.813264 662.611812,761.853189 663.641046,751.982305 666.221966,716.984030 765.333167,725.794980 778.022541,639.529495 785.614408,553.566589 710.227199,546.997934 634.690232,540.422637 630.094436,591.934711 620.684535,732.686499 613.548606,731.999730 595.660728,731.630369 561.917289,728.576514 540.079190,726.704126 539.296453,735.746103 531.774532,735.101439 526.908521,791.482482 526.837676,792.262998 525.361952,792.140106 505.441830,790.425426 504.799616,797.850768 512.797606,798.540412 512.915624,797.135696 517.200315,797.507537 517.076008,798.934649 517.892139,799.005476 516.721393,812.562813 516.711454,813.030396"/>
    <poly id="121717655" type="building.yes" color="255,230,230" fill="1" layer="-1.00" shape="928.229914,748.936508 936.057833,736.466638 902.653148,715.643226 898.360822,728.067991 918.735393,740.768275 917.692702,742.416067 928.229914,748.936508"/>
    <poly id="121717767" type="leisure.park" color="207,245,201" fill="1" layer="-2.00" shape="1026.429378,835.721934 1051.262811,854.544146 1052.932651,852.403981 1052.182903,851.652808 1051.696762,850.851277 1051.442773,850.111361 1051.344335,849.345739 1051.383066,848.643839 1051.544165,847.950353 1051.900287,847.174647 1052.414426,846.484456 1053.047109,845.936295 1053.777983,845.530615 1054.532911,845.291315 1055.325216,845.206973 1056.612666,845.412093 1057.318871,845.730256 1057.918497,846.139804 1060.057706,843.432849 1062.593256,845.435215 1063.448472,844.514907 1064.292463,844.006571 1065.243155,843.718420 1066.110830,843.665791 1066.969377,843.813661 1067.880349,844.182922 1068.667102,844.766362 1069.239219,845.465840 1069.644191,846.280301 1069.844887,847.065911 1069.876465,847.877526 1069.751506,848.670359 1069.462486,849.411192 1068.797483,850.338407 1072.030100,852.859442 1070.062845,855.362280 1071.008352,856.676622 1071.219904,857.339587 1071.310074,858.038627 1071.272327,858.785015 1071.098150,859.501046 1070.800373,860.153052 1070.399349,860.740583 1069.814650,861.309933 1069.125224,861.748075 1068.317503,862.055309 1067.464880,862.174370 1066.751278,862.134560 1066.048283,861.960984 1065.149650,861.535812 1063.314884,863.891056 1081.578617,877.562400 1039.463314,933.066491 1050.742176,941.529183 1116.289789,855.449919 1045.359657,809.363437 1026.429378,835.721934"/>
    <poly id="125736711" type="building.viaduct" color="255,230,230" fill="1" layer="-1.00" shape="1406.688605,1145.971050 1449.078948,1162.693307 1465.044077,1167.970980 1483.050328,1172.858641 1501.147197,1176.320034 1512.352129,1178.119952 1522.995261,1179.375926 1534.321266,1180.205118 1544.204540,1180.554332 1552.212137,1180.488758 1559.586609,1180.337029 1569.173653,1180.180966 1581.870449,1179.155076 1592.868698,1177.743868 1602.021207,1176.351173 1613.477655,1174.173222 1624.536377,1171.503334 1618.155461,1154.552199 1598.660901,1158.799260 1581.052277,1161.157581 1567.790886,1162.129173 1557.027067,1162.478139 1546.317673,1162.525481 1525.677780,1161.623802 1505.541283,1158.930674 1494.976612,1156.927454 1473.177832,1151.500417 1465.859893,1148.991530 1456.681929,1145.856111 1440.916598,1139.795115 1416.359288,1128.720852 1406.688605,1145.971050"/>
    <poly id="126128623" type="building.yes" color="255,230,230" fill="1" layer="-1.00" shape="1151.186563,1129.862260 1156.710509,1139.921589 1158.909360,1143.277903 1161.709901,1146.220287 1164.545601,1148.605513 1184.527462,1162.684226 1176.974797,1171.642412 1175.861874,1170.120337 1171.938924,1166.145696 1166.150385,1160.376348 1150.137907,1144.407045 1145.389389,1147.283082 1140.268732,1150.823902 1133.889716,1141.384439 1151.186563,1129.862260"/>
    <poly id="126128623#1" type="tourism.hotel" color="207,245,201" fill="1" layer="-2.00" shape="1151.186563,1129.862260 1156.710509,1139.921589 1158.909360,1143.277903 1161.709901,1146.220287 1164.545601,1148.605513 1184.527462,1162.684226 1176.974797,1171.642412 1175.861874,1170.120337 1171.938924,1166.145696 1166.150385,1160.376348 1150.137907,1144.407045 1145.389389,1147.283082 1140.268732,1150.823902 1133.889716,1141.384439 1151.186563,1129.862260"/>