<?xml version="1.0" encoding="UTF-8"?>

<!-- generated on 04/03/21 23:28:08 by Eclipse SUMO duarouter Version 1.8.0
<configuration xmlns:xsi="http://www.w3.org/2001/XMLSchema-instance" xsi:noNamespaceSchemaLocation="http://sumo.dlr.de/xsd/duarouterConfiguration.xsd">

    <input>
        <net-file value="C:\Users\Arkonaire\Sumo\2021-04-03-23-27-18\osm.net.xml"/>
        <route-files value="C:\Users\Arkonaire\Sumo\2021-04-03-23-27-18\osm.passenger.trips.xml"/>
    </input>

    <output>
        <output-file value="C:\Users\Arkonaire\Sumo\2021-04-03-23-27-18\osm.passenger.trips.xml.tmp"/>
        <write-trips value="true"/>
    </output>

    <time>
        <begin value="0"/>
        <end value="3600"/>
    </time>

    <report>
        <no-warnings value="true"/>
        <ignore-errors value="true"/>
        <no-step-log value="true"/>
    </report>

</configuration>
-->

<routes xmlns:xsi="http://www.w3.org/2001/XMLSchema-instance" xsi:noNamespaceSchemaLocation="http://sumo.dlr.de/xsd/routes_file.xsd">
    <vType id="veh_passenger" vClass="passenger"/>
    <trip id="veh0" type="veh_passenger" depart="0.00" departLane="best" from="301167584#0" to="-156364570#1"/>
    <trip id="veh1" type="veh_passenger" depart="9.19" departLane="best" from="-55741054" to="-6227658#1"/>
    <trip id="veh2" type="veh_passenger" depart="18.38" departLane="best" from="374734389#0" to="34848160#1"/>
    <trip id="veh3" type="veh_passenger" depart="27.56" departLane="best" from="19002363#2" to="-158023913#0"/>
    <trip id="veh4" type="veh_passenger" depart="36.75" departLane="best" departSpeed="max" from="-4396823" to="24241762#1"/>
    <trip id="veh5" type="veh_passenger" depart="45.94" departLane="best" departSpeed="max" from="-11483007#2" to="-4610472#1"/>
    <trip id="veh6" type="veh_passenger" depart="55.13" departLane="best" from="30721660#1" to="25294729#1"/>
    <trip id="veh7" type="veh_passenger" depart="64.32" departLane="best" from="-4402228" to="30721660#3"/>
    <trip id="veh8" type="veh_passenger" depart="73.51" departLane="best" from="4610472#1" to="-128396190#0"/>
    <trip id="veh9" type="veh_passenger" depart="82.69" departLane="best" from="4610374" to="35578576#1"/>
    <trip id="veh10" type="veh_passenger" depart="91.88" departLane="best" departSpeed="max" from="686908626" to="153698394#1"/>
    <trip id="veh12" type="veh_passenger" depart="110.26" departLane="best" from="4610375" to="42103020#0"/>
    <trip id="veh16" type="veh_passenger" depart="147.01" departLane="best" from="339201219" to="-168937986#0"/>
    <trip id="veh17" type="veh_passenger" depart="156.20" departLane="best" from="-4610375" to="112128418#2"/>
    <trip id="veh18" type="veh_passenger" depart="165.39" departLane="best" from="-202156991#0" to="-750204886"/>
    <trip id="veh19" type="veh_passenger" depart="174.58" departLane="best" from="-234463928#0" to="111251382#3"/>
    <trip id="veh21" type="veh_passenger" depart="192.95" departLane="best" from="15971189" to="-465376254"/>
    <trip id="veh22" type="veh_passenger" depart="202.14" departLane="best" departSpeed="max" from="-51167934#4" to="61584187#3"/>
    <trip id="veh24" type="veh_passenger" depart="220.52" departLane="best" from="-339201177#0" to="42103020#0"/>
    <trip id="veh25" type="veh_passenger" depart="229.71" departLane="best" from="-31313667#0" to="188914559"/>
    <trip id="veh27" type="veh_passenger" depart="248.08" departLane="best" departSpeed="max" from="246052428" to="34848160#3"/>
    <trip id="veh28" type="veh_passenger" depart="257.27" departLane="best" from="4773465#1" to="4610362#6"/>
    <trip id="veh29" type="veh_passenger" depart="266.46" departLane="best" from="-4610472#0" to="-158023913#0"/>
    <trip id="veh30" type="veh_passenger" depart="275.65" departLane="best" from="-437325047#5" to="61584187#4"/>
    <trip id="veh31" type="veh_passenger" depart="284.84" departLane="best" departSpeed="max" from="54048862#0" to="11483007#0"/>
    <trip id="veh32" type="veh_passenger" depart="294.02" departLane="best" from="30721660#5" to="194962375#1"/>
    <trip id="veh33" type="veh_passenger" depart="303.21" departLane="best" departSpeed="max" from="606078066#0" to="23013165#0"/>
    <trip id="veh34" type="veh_passenger" depart="312.40" departLane="best" departSpeed="max" from="-51167934#4" to="100405009#1"/>
    <trip id="veh35" type="veh_passenger" depart="321.59" departLane="best" departSpeed="max" from="24914141#0" to="541763974"/>
    <trip id="veh36" type="veh_passenger" depart="330.78" departLane="best" from="168940071#3" to="-55741054"/>
    <trip id="veh37" type="veh_passenger" depart="339.96" departLane="best" from="84960597#0" to="24241762#1"/>
    <trip id="veh38" type="veh_passenger" depart="349.15" departLane="best" from="-225400578#1" to="-168937986#0"/>
    <trip id="veh42" type="veh_passenger" depart="385.91" departLane="best" departSpeed="max" from="750204886" to="4790825#1"/>
    <trip id="veh43" type="veh_passenger" depart="395.09" departLane="best" departSpeed="max" from="-111251382#3" to="4067932#1"/>
    <trip id="veh44" type="veh_passenger" depart="404.28" departLane="best" from="312357351#1" to="24990040"/>
    <trip id="veh46" type="veh_passenger" depart="422.66" departLane="best" from="195401017#5" to="6227658#2"/>
    <trip id="veh47" type="veh_passenger" depart="431.85" departLane="best" departSpeed="max" from="54048862#0" to="100405009#3"/>
    <trip id="veh48" type="veh_passenger" depart="441.04" departLane="best" from="23121445#0" to="-370359204#1"/>
    <trip id="veh49" type="veh_passenger" depart="450.22" departLane="best" departSpeed="max" from="606078066#0" to="490365295#1"/>
    <trip id="veh50" type="veh_passenger" depart="459.41" departLane="best" from="-84960597#0" to="328920970"/>
    <trip id="veh51" type="veh_passenger" depart="468.60" departLane="best" from="42103020#0" to="24993933#2"/>
    <trip id="veh53" type="veh_passenger" depart="486.98" departLane="best" departSpeed="max" from="-111251382#3" to="128396190#3"/>
    <trip id="veh54" type="veh_passenger" depart="496.16" departLane="best" departSpeed="max" from="-112128825#1" to="61583424#1"/>
    <trip id="veh55" type="veh_passenger" depart="505.35" departLane="best" departSpeed="max" from="54048862#0" to="465376239"/>
    <trip id="veh57" type="veh_passenger" depart="523.73" departLane="best" departSpeed="max" from="-202156991#2" to="234463931#6"/>
    <trip id="veh58" type="veh_passenger" depart="532.92" departLane="best" from="-194962375#1" to="4610355#1"/>
    <trip id="veh59" type="veh_passenger" depart="542.11" departLane="best" from="42103020#2" to="-24990040"/>
    <trip id="veh60" type="veh_passenger" depart="551.29" departLane="best" from="19002363#3" to="-51167934#1"/>
    <trip id="veh61" type="veh_passenger" depart="560.48" departLane="best" from="24243092#1" to="42103020#2"/>
    <trip id="veh64" type="veh_passenger" depart="588.05" departLane="best" departSpeed="max" from="-23813206#2" to="-6227658#3"/>
    <trip id="veh65" type="veh_passenger" depart="597.24" departLane="best" from="128396190#2" to="30721660#2"/>
    <trip id="veh66" type="veh_passenger" depart="606.42" departLane="best" from="-4610472#1" to="-560370523"/>
    <trip id="veh67" type="veh_passenger" depart="615.61" departLane="best" from="-4610472#0" to="606078071#0"/>
    <trip id="veh68" type="veh_passenger" depart="624.80" departLane="best" from="51167934#1" to="-19002363#2"/>
    <trip id="veh70" type="veh_passenger" depart="643.18" departLane="best" departSpeed="max" from="-4396823" to="-24993933#0"/>
    <trip id="veh72" type="veh_passenger" depart="661.55" departLane="best" from="202156995#0" to="4610472#2"/>
    <trip id="veh73" type="veh_passenger" depart="670.74" departLane="best" from="4610375" to="-454285423#0"/>
    <trip id="veh74" type="veh_passenger" depart="679.93" departLane="best" from="19002363#4" to="23013165#2"/>
    <trip id="veh76" type="veh_passenger" depart="698.31" departLane="best" from="168942727#2" to="153698394#1"/>
    <trip id="veh77" type="veh_passenger" depart="707.49" departLane="best" from="-35578576#1" to="202157002#2"/>
    <trip id="veh78" type="veh_passenger" depart="716.68" departLane="best" from="19002363#2" to="111251382#3"/>
    <trip id="veh79" type="veh_passenger" depart="725.87" departLane="best" departSpeed="max" from="-4613293" to="61583423#1"/>
    <trip id="veh80" type="veh_passenger" depart="735.06" departLane="best" departSpeed="max" from="246052428" to="-168937986#0"/>
    <trip id="veh82" type="veh_passenger" depart="753.44" departLane="best" departSpeed="max" from="750204886" to="61583424#0"/>
    <trip id="veh83" type="veh_passenger" depart="762.62" departLane="best" from="4773465#3" to="-34848160#1"/>
    <trip id="veh84" type="veh_passenger" depart="771.81" departLane="best" from="22972219#0" to="-51167934#3"/>
    <trip id="veh85" type="veh_passenger" depart="781.00" departLane="best" from="168942727#1" to="-168940071#1"/>
    <trip id="veh86" type="veh_passenger" depart="790.19" departLane="best" departSpeed="max" from="165415464#0" to="831694400"/>
    <trip id="veh87" type="veh_passenger" depart="799.38" departLane="best" departSpeed="max" from="-51167934#4" to="4610472#1"/>
    <trip id="veh89" type="veh_passenger" depart="817.75" departLane="best" departSpeed="max" from="686908626" to="83517339"/>
    <trip id="veh90" type="veh_passenger" depart="826.94" departLane="best" departSpeed="max" from="246052428" to="389705415#1"/>
    <trip id="veh93" type="veh_passenger" depart="854.51" departLane="best" from="-168942727#3" to="30720544#1"/>
    <trip id="veh94" type="veh_passenger" depart="863.69" departLane="best" from="23121445#2" to="4773465#2"/>
    <trip id="veh96" type="veh_passenger" depart="882.07" departLane="best" from="-202156991#0" to="-437325048#1"/>
    <trip id="veh99" type="veh_passenger" depart="909.64" departLane="best" from="541295978#1" to="100405009#1"/>
    <trip id="veh101" type="veh_passenger" depart="928.01" departLane="best" from="19002357#1" to="30720544#1"/>
    <trip id="veh102" type="veh_passenger" depart="937.20" departLane="best" from="23813206#0" to="61584187#2"/>
    <trip id="veh105" type="veh_passenger" depart="964.76" departLane="best" from="112128419#2" to="4402228"/>
    <trip id="veh106" type="veh_passenger" depart="973.95" departLane="best" from="-195397541#1" to="23013165#0"/>
    <trip id="veh107" type="veh_passenger" depart="983.14" departLane="best" departSpeed="max" from="-51167934#4" to="61584187#1"/>
    <trip id="veh108" type="veh_passenger" depart="992.33" departLane="best" departSpeed="max" from="54048862#0" to="51167934#4"/>
    <trip id="veh109" type="veh_passenger" depart="1001.52" departLane="best" from="268002748#1" to="83517332#2"/>
    <trip id="veh110" type="veh_passenger" depart="1010.71" departLane="best" from="30721660#4" to="-128396190#0"/>
    <trip id="veh111" type="veh_passenger" depart="1019.89" departLane="best" from="4610480" to="112128419#1"/>
    <trip id="veh112" type="veh_passenger" depart="1029.08" departLane="best" from="309147331#0" to="61584187#4"/>
    <trip id="veh113" type="veh_passenger" depart="1038.27" departLane="best" from="-24243107#1" to="-23809670#3"/>
    <trip id="veh116" type="veh_passenger" depart="1065.84" departLane="best" from="344594962" to="-4610600"/>
    <trip id="veh118" type="veh_passenger" depart="1084.21" departLane="best" from="23013165#0" to="606078071#0"/>
    <trip id="veh119" type="veh_passenger" depart="1093.40" departLane="best" from="4773465#2" to="-222328410"/>
    <trip id="veh120" type="veh_passenger" depart="1102.59" departLane="best" from="19002363#4" to="111251382#3"/>
    <trip id="veh121" type="veh_passenger" depart="1111.78" departLane="best" departSpeed="max" from="-111251382#3" to="4610362#2"/>
    <trip id="veh124" type="veh_passenger" depart="1139.34" departLane="best" from="19002403#1" to="-128396190#0"/>
    <trip id="veh125" type="veh_passenger" depart="1148.53" departLane="best" from="-195397561#1" to="523630409"/>
    <trip id="veh126" type="veh_passenger" depart="1157.72" departLane="best" departSpeed="max" from="606078066#0" to="25294729#1"/>
    <trip id="veh127" type="veh_passenger" depart="1166.91" departLane="best" from="46140376#2" to="30720544#1"/>
    <trip id="veh128" type="veh_passenger" depart="1176.09" departLane="best" from="-25302636#1" to="-24243107#2"/>
    <trip id="veh130" type="veh_passenger" depart="1194.47" departLane="best" from="4610362#1" to="4790825#1"/>
    <trip id="veh131" type="veh_passenger" depart="1203.66" departLane="best" from="560370523" to="-465376254"/>
    <trip id="veh132" type="veh_passenger" depart="1212.85" departLane="best" departSpeed="max" from="-4613293" to="-23121445#5"/>
    <trip id="veh133" type="veh_passenger" depart="1222.04" departLane="best" departSpeed="max" from="454285423#0" to="523630409"/>
    <trip id="veh137" type="veh_passenger" depart="1258.79" departLane="best" from="4610472#2" to="51167934#4"/>
    <trip id="veh138" type="veh_passenger" depart="1267.98" departLane="best" departSpeed="max" from="-11483007#2" to="427637455"/>
    <trip id="veh139" type="veh_passenger" depart="1277.16" departLane="best" departSpeed="max" from="122820534#0" to="61584187#1"/>
    <trip id="veh140" type="veh_passenger" depart="1286.35" departLane="best" from="4610362#6" to="4790825#1"/>
    <trip id="veh141" type="veh_passenger" depart="1295.54" departLane="best" from="4610472#2" to="100405009#3"/>
    <trip id="veh142" type="veh_passenger" depart="1304.73" departLane="best" from="454285423#3" to="-234463931#2"/>
    <trip id="veh143" type="veh_passenger" depart="1313.92" departLane="best" departSpeed="max" from="54048862#0" to="478432725"/>
    <trip id="veh144" type="veh_passenger" depart="1323.11" departLane="best" from="-454285423#0" to="4613293"/>
    <trip id="veh146" type="veh_passenger" depart="1341.48" departLane="best" from="4610362#1" to="-6228081"/>
    <trip id="veh147" type="veh_passenger" depart="1350.67" departLane="best" departSpeed="max" from="-11483007#2" to="-454285423#3"/>
    <trip id="veh148" type="veh_passenger" depart="1359.86" departLane="best" departSpeed="max" from="122820534#0" to="4790825#1"/>
    <trip id="veh149" type="veh_passenger" depart="1369.05" departLane="best" from="743631784" to="111251382#3"/>
    <trip id="veh150" type="veh_passenger" depart="1378.24" departLane="best" from="301167584#0" to="195397561#1"/>
    <trip id="veh151" type="veh_passenger" depart="1387.42" departLane="best" from="831659093#1" to="24914992#1"/>
    <trip id="veh153" type="veh_passenger" depart="1405.80" departLane="best" departSpeed="max" from="750204886" to="-370359204#1"/>
    <trip id="veh154" type="veh_passenger" depart="1414.99" departLane="best" from="72157174#1" to="100405009#3"/>
    <trip id="veh155" type="veh_passenger" depart="1424.18" departLane="best" from="-234463931#5" to="202156994#0"/>
    <trip id="veh156" type="veh_passenger" depart="1433.36" departLane="best" from="36892597#0" to="11483007#0"/>
    <trip id="veh157" type="veh_passenger" depart="1442.55" departLane="best" from="25294728" to="24241762#1"/>
    <trip id="veh160" type="veh_passenger" depart="1470.12" departLane="best" departSpeed="max" from="-111251382#3" to="61583423#1"/>
    <trip id="veh161" type="veh_passenger" depart="1479.31" departLane="best" from="24243052#1" to="4067932#1"/>
    <trip id="veh162" type="veh_passenger" depart="1488.49" departLane="best" from="374734389#2" to="340498976#8"/>
    <trip id="veh163" type="veh_passenger" depart="1497.68" departLane="best" departSpeed="max" from="158023913#0" to="-19002363#10"/>
    <trip id="veh164" type="veh_passenger" depart="1506.87" departLane="best" from="309147331#0" to="139877314#1"/>
    <trip id="veh165" type="veh_passenger" depart="1516.06" departLane="best" from="112128419#1" to="465398529#1"/>
    <trip id="veh166" type="veh_passenger" depart="1525.25" departLane="best" from="34848160#2" to="112128419#2"/>
    <trip id="veh167" type="veh_passenger" depart="1534.44" departLane="best" from="11103418" to="195401013#2"/>
    <trip id="veh168" type="veh_passenger" depart="1543.62" departLane="best" from="168942727#2" to="112128418#2"/>
    <trip id="veh169" type="veh_passenger" depart="1552.81" departLane="best" departSpeed="max" from="-24241762#2" to="195411604"/>
    <trip id="veh173" type="veh_passenger" depart="1589.56" departLane="best" departSpeed="max" from="-111251382#3" to="112128418#2"/>
    <trip id="veh174" type="veh_passenger" depart="1598.75" departLane="best" from="190447766#1" to="30720544#0"/>
    <trip id="veh175" type="veh_passenger" depart="1607.94" departLane="best" from="30721660#4" to="23013165#1"/>
    <trip id="veh176" type="veh_passenger" depart="1617.13" departLane="best" from="195401006" to="-51167934#3"/>
    <trip id="veh177" type="veh_passenger" depart="1626.32" departLane="best" from="202156995#1" to="55741054"/>
    <trip id="veh178" type="veh_passenger" depart="1635.51" departLane="best" from="4610362#1" to="-35578576#0"/>
    <trip id="veh179" type="veh_passenger" depart="1644.69" departLane="best" departSpeed="max" from="-202156991#2" to="24241797#3"/>
    <trip id="veh181" type="veh_passenger" depart="1663.07" departLane="best" from="4610600" to="4402228"/>
    <trip id="veh184" type="veh_passenger" depart="1690.64" departLane="best" from="478432725" to="-19002363#3"/>
    <trip id="veh185" type="veh_passenger" depart="1699.82" departLane="best" from="171826985#3" to="31313667#2"/>
    <trip id="veh186" type="veh_passenger" depart="1709.01" departLane="best" from="-36892597#1" to="35578576#0"/>
    <trip id="veh187" type="veh_passenger" depart="1718.20" departLane="best" from="23013165#1" to="-84960597#0"/>
    <trip id="veh188" type="veh_passenger" depart="1727.39" departLane="best" from="30721660#5" to="-128396190#0"/>
    <trip id="veh189" type="veh_passenger" depart="1736.58" departLane="best" from="389705415#1" to="4610362#1"/>
    <trip id="veh190" type="veh_passenger" depart="1745.76" departLane="best" from="-234463931#4" to="202156991#0"/>
    <trip id="veh191" type="veh_passenger" depart="1754.95" departLane="best" from="-339201177#4" to="6228081"/>
    <trip id="veh192" type="veh_passenger" depart="1764.14" departLane="best" from="23809670#2" to="-168937986#0"/>
    <trip id="veh193" type="veh_passenger" depart="1773.33" departLane="best" departSpeed="max" from="-4613293" to="465398529#1"/>
    <trip id="veh195" type="veh_passenger" depart="1791.71" departLane="best" from="309479676" to="83517332#2"/>
    <trip id="veh196" type="veh_passenger" depart="1800.89" departLane="best" from="24990040" to="61584187#4"/>
    <trip id="veh198" type="veh_passenger" depart="1819.27" departLane="best" from="34848160#1" to="23852053#1"/>
    <trip id="veh199" type="veh_passenger" depart="1828.46" departLane="best" from="4613308#2" to="25294729#1"/>
    <trip id="veh200" type="veh_passenger" depart="1837.65" departLane="best" from="541763975" to="437325047#3"/>
    <trip id="veh201" type="veh_passenger" depart="1846.84" departLane="best" from="202156995#1" to="100405009#3"/>
    <trip id="veh204" type="veh_passenger" depart="1874.40" departLane="best" from="-195397561#6" to="112128418#2"/>
    <trip id="veh205" type="veh_passenger" depart="1883.59" departLane="best" from="-534588621#0" to="122820534#1"/>
    <trip id="veh206" type="veh_passenger" depart="1892.78" departLane="best" from="24243101" to="-24993933#4"/>
    <trip id="veh207" type="veh_passenger" depart="1901.96" departLane="best" from="-4610472#1" to="35269774#2"/>
    <trip id="veh208" type="veh_passenger" depart="1911.15" departLane="best" from="339201219" to="-168942727#2"/>
    <trip id="veh210" type="veh_passenger" depart="1929.53" departLane="best" from="19002363#1" to="606078071#0"/>
    <trip id="veh211" type="veh_passenger" depart="1938.72" departLane="best" departSpeed="max" from="24914141#0" to="35578559"/>
    <trip id="veh212" type="veh_passenger" depart="1947.91" departLane="best" from="492340367#0" to="4610355#2"/>
    <trip id="veh213" type="veh_passenger" depart="1957.09" departLane="best" departSpeed="max" from="165415464#0" to="-128396190#0"/>
    <trip id="veh214" type="veh_passenger" depart="1966.28" departLane="best" from="139877314#1" to="454285423#3"/>
    <trip id="veh215" type="veh_passenger" depart="1975.47" departLane="best" from="490365295#1" to="6227658#2"/>
    <trip id="veh216" type="veh_passenger" depart="1984.66" departLane="best" from="19002357#1" to="437325048#0"/>
    <trip id="veh218" type="veh_passenger" depart="2003.04" departLane="best" from="-4402228" to="-560370523"/>
    <trip id="veh219" type="veh_passenger" depart="2012.22" departLane="best" from="194962375#2" to="-158023913#0"/>
    <trip id="veh220" type="veh_passenger" depart="2021.41" departLane="best" from="128396190#0" to="34848160#3"/>
    <trip id="veh221" type="veh_passenger" depart="2030.60" departLane="best" from="168942727#3" to="-339201185"/>
    <trip id="veh222" type="veh_passenger" depart="2039.79" departLane="best" from="202156994#0" to="-24243107#2"/>
    <trip id="veh226" type="veh_passenger" depart="2076.54" departLane="best" from="-24243107#2" to="23013165#0"/>
    <trip id="veh227" type="veh_passenger" depart="2085.73" departLane="best" from="-168940071#1" to="188914559"/>
    <trip id="veh228" type="veh_passenger" depart="2094.92" departLane="best" from="-437325048#1" to="137630045"/>
    <trip id="veh229" type="veh_passenger" depart="2104.11" departLane="best" from="42103020#0" to="188914559"/>
    <trip id="veh230" type="veh_passenger" depart="2113.29" departLane="best" from="389705415#1" to="465376239"/>
    <trip id="veh231" type="veh_passenger" depart="2122.48" departLane="best" departSpeed="max" from="-4613293" to="-195397541#1"/>
    <trip id="veh232" type="veh_passenger" depart="2131.67" departLane="best" departSpeed="max" from="-112128825#1" to="24993933#2"/>
    <trip id="veh233" type="veh_passenger" depart="2140.86" departLane="best" from="84960597#1" to="15977422#0"/>
    <trip id="veh234" type="veh_passenger" depart="2150.05" departLane="best" from="30721660#1" to="4610375"/>
    <trip id="veh235" type="veh_passenger" depart="2159.24" departLane="best" departSpeed="max" from="686908626" to="-4610472#1"/>
    <trip id="veh236" type="veh_passenger" depart="2168.42" departLane="best" departSpeed="max" from="-11483007#2" to="-31313667#2"/>
    <trip id="veh237" type="veh_passenger" depart="2177.61" departLane="best" departSpeed="max" from="-24241762#2" to="340498976#6"/>
    <trip id="veh238" type="veh_passenger" depart="2186.80" departLane="best" from="24913519#1" to="-541295974"/>
    <trip id="veh239" type="veh_passenger" depart="2195.99" departLane="best" from="339201177#3" to="4610355#2"/>
    <trip id="veh241" type="veh_passenger" depart="2214.36" departLane="best" departSpeed="max" from="389705411#0" to="-23809670#2"/>
    <trip id="veh243" type="veh_passenger" depart="2232.74" departLane="best" departSpeed="max" from="686908626" to="194962375#1"/>
    <trip id="veh246" type="veh_passenger" depart="2260.31" departLane="best" from="-234463931#0" to="4610362#3"/>
    <trip id="veh248" type="veh_passenger" depart="2278.68" departLane="best" departSpeed="max" from="-23813206#2" to="831694400"/>
    <trip id="veh249" type="veh_passenger" depart="2287.87" departLane="best" departSpeed="max" from="454285423#0" to="158023913#1"/>
    <trip id="veh250" type="veh_passenger" depart="2297.06" departLane="best" from="19002403#1" to="171826985#1"/>
    <trip id="veh251" type="veh_passenger" depart="2306.25" departLane="best" from="23121445#5" to="156364556#1"/>
    <trip id="veh252" type="veh_passenger" depart="2315.44" departLane="best" from="478432725" to="4613295"/>
    <trip id="veh255" type="veh_passenger" depart="2343.00" departLane="best" from="340498976#10" to="202156994#0"/>
    <trip id="veh256" type="veh_passenger" depart="2352.19" departLane="best" departSpeed="max" from="-51167934#4" to="4612981#1"/>
    <trip id="veh257" type="veh_passenger" depart="2361.38" departLane="best" from="24243052#1" to="234463931#4"/>
    <trip id="veh258" type="veh_passenger" depart="2370.56" departLane="best" from="194962375#2" to="42103020#2"/>
    <trip id="veh259" type="veh_passenger" depart="2379.75" departLane="best" departSpeed="max" from="-51167934#4" to="4773465#1"/>
    <trip id="veh260" type="veh_passenger" depart="2388.94" departLane="best" from="4613308#3" to="-195397561#6"/>
    <trip id="veh261" type="veh_passenger" depart="2398.13" departLane="best" departSpeed="max" from="54048862#0" to="-84960597#0"/>
    <trip id="veh263" type="veh_passenger" depart="2416.51" departLane="best" departSpeed="max" from="165415464#0" to="-158023913#0"/>
    <trip id="veh264" type="veh_passenger" depart="2425.69" departLane="best" from="490365295#0" to="-437325047#2"/>
    <trip id="veh266" type="veh_passenger" depart="2444.07" departLane="best" departSpeed="max" from="136571494#0" to="51167934#4"/>
    <trip id="veh267" type="veh_passenger" depart="2453.26" departLane="best" from="339201177#4" to="111251382#3"/>
    <trip id="veh268" type="veh_passenger" depart="2462.45" departLane="best" departSpeed="max" from="-111251382#3" to="61584187#4"/>
    <trip id="veh269" type="veh_passenger" depart="2471.64" departLane="best" from="23013165#0" to="4610351#1"/>
    <trip id="veh271" type="veh_passenger" depart="2490.01" departLane="best" from="23013165#0" to="4610600"/>
    <trip id="veh272" type="veh_passenger" depart="2499.20" departLane="best" from="-23121445#0" to="-562707499"/>
    <trip id="veh273" type="veh_passenger" depart="2508.39" departLane="best" departSpeed="max" from="24914141#0" to="23121445#2"/>
    <trip id="veh274" type="veh_passenger" depart="2517.58" departLane="best" from="24241797#3" to="202156991#0"/>
    <trip id="veh275" type="veh_passenger" depart="2526.76" departLane="best" departSpeed="max" from="389705411#0" to="139877314#1"/>
    <trip id="veh276" type="veh_passenger" depart="2535.95" departLane="best" from="339201177#5" to="100405009#3"/>
    <trip id="veh277" type="veh_passenger" depart="2545.14" departLane="best" departSpeed="max" from="-4613293" to="-24241797#2"/>
    <trip id="veh278" type="veh_passenger" depart="2554.33" departLane="best" departSpeed="max" from="24243052#0" to="4610355#2"/>
    <trip id="veh279" type="veh_passenger" depart="2563.52" departLane="best" departSpeed="max" from="-34848160#3" to="-534588621#1"/>
    <trip id="veh280" type="veh_passenger" depart="2572.71" departLane="best" from="22972195#2" to="415280722"/>
    <trip id="veh281" type="veh_passenger" depart="2581.89" departLane="best" from="756306892" to="24913519#1"/>
    <trip id="veh282" type="veh_passenger" depart="2591.08" departLane="best" from="-6228081" to="-23121445#4"/>
    <trip id="veh283" type="veh_passenger" depart="2600.27" departLane="best" from="-36892597#1" to="-6228081"/>
    <trip id="veh284" type="veh_passenger" depart="2609.46" departLane="best" from="-339201185" to="-128396190#3"/>
    <trip id="veh285" type="veh_passenger" depart="2618.65" departLane="best" departSpeed="max" from="24243052#0" to="111251382#3"/>
    <trip id="veh287" type="veh_passenger" depart="2637.02" departLane="best" from="339201177#1" to="-24243107#1"/>
    <trip id="veh288" type="veh_passenger" depart="2646.21" departLane="best" departSpeed="max" from="54048862#0" to="23809678#1"/>
    <trip id="veh290" type="veh_passenger" depart="2664.59" departLane="best" departSpeed="max" from="-34848160#3" to="-168937986#0"/>
    <trip id="veh291" type="veh_passenger" depart="2673.78" departLane="best" from="6227658#1" to="23121445#5"/>
    <trip id="veh292" type="veh_passenger" depart="2682.96" departLane="best" from="4611698#1" to="195397561#1"/>
    <trip id="veh293" type="veh_passenger" depart="2692.15" departLane="best" from="-168942727#0" to="-31313667#0"/>
    <trip id="veh294" type="veh_passenger" depart="2701.34" departLane="best" from="83517336#4" to="-23813206#1"/>
    <trip id="veh296" type="veh_passenger" depart="2719.72" departLane="best" from="4610351#1" to="-6227658#3"/>
    <trip id="veh297" type="veh_passenger" depart="2728.91" departLane="best" from="23813206#0" to="222328410"/>
    <trip id="veh299" type="veh_passenger" depart="2747.28" departLane="best" from="374734389#1" to="61584187#4"/>
    <trip id="veh300" type="veh_passenger" depart="2756.47" departLane="best" from="-437325047#2" to="-492340367#0"/>
    <trip id="veh301" type="veh_passenger" depart="2765.66" departLane="best" from="30721662#3" to="-339201177#0"/>
    <trip id="veh302" type="veh_passenger" depart="2774.85" departLane="best" from="-339201177#2" to="-19002363#6"/>
    <trip id="veh303" type="veh_passenger" depart="2784.04" departLane="best" from="24914992#1" to="112128418#2"/>
    <trip id="veh304" type="veh_passenger" depart="2793.22" departLane="best" from="-4610472#4" to="370359204#2"/>
    <trip id="veh305" type="veh_passenger" depart="2802.41" departLane="best" from="339201185" to="225400578#2"/>
    <trip id="veh306" type="veh_passenger" depart="2811.60" departLane="best" from="31313667#3" to="61583423#1"/>
    <trip id="veh308" type="veh_passenger" depart="2829.98" departLane="best" from="30721662#3" to="61584187#2"/>
    <trip id="veh309" type="veh_passenger" depart="2839.16" departLane="best" from="19002363#6" to="25294729#1"/>
    <trip id="veh310" type="veh_passenger" depart="2848.35" departLane="best" from="30720544#1" to="606078071#3"/>
    <trip id="veh314" type="veh_passenger" depart="2885.11" departLane="best" from="-751595929#0" to="-24243107#0"/>
    <trip id="veh315" type="veh_passenger" depart="2894.29" departLane="best" from="316746323#0" to="35578576#2"/>
    <trip id="veh316" type="veh_passenger" depart="2903.48" departLane="best" from="6227658#2" to="23813206#2"/>