<?xml version="1.0" encoding="UTF-8"?>

<!-- generated on 04/03/21 23:27:58 by Eclipse SUMO netconvert Version 1.8.0
<configuration xmlns:xsi="http://www.w3.org/2001/XMLSchema-instance" xsi:noNamespaceSchemaLocation="http://sumo.dlr.de/xsd/netconvertConfiguration.xsd">

    <input>
        <type-files value="D:\Operations\Eclipse\Sumo\data\typemap\osmNetconvert.typ.xml"/>
        <osm-files value="osm_bbox.osm.xml"/>
    </input>

    <output>
        <output-file value="osm.net.xml"/>
        <output.street-names value="true"/>
        <output.original-names value="true"/>
    </output>

    <projection>
        <proj.utm value="true"/>
    </projection>

    <processing>
        <geometry.remove value="true"/>
        <roundabouts.guess value="true"/>
    </processing>

    <tls_building>
        <tls.discard-simple value="true"/>
        <tls.join value="true"/>
        <tls.guess-signals value="true"/>
        <tls.default-type value="actuated"/>
    </tls_building>

    <ramp_guessing>
        <ramps.guess value="true"/>
    </ramp_guessing>

    <junctions>
        <junctions.join value="true"/>
        <junctions.corner-detail value="5"/>
    </junctions>

    <report>
        <verbose value="true"/>
        <aggregate-warnings value="5"/>
    </report>

</configuration>
-->

<net version="1.6" junctionCornerDetail="5" limitTurnSpeed="5.50" xmlns:xsi="http://www.w3.org/2001/XMLSchema-instance" xsi:noNamespaceSchemaLocation="http://sumo.dlr.de/xsd/net_file.xsd">

    <location netOffset="-390301.73,-5819272.32" convBoundary="0.00,0.00,2319.98,2098.04" origBoundary="13.372213,52.512896,13.417649,52.531772" projParameter="+proj=utm +zone=33 +ellps=WGS84 +datum=WGS84 +units=m +no_defs"/>

    <type id="highway.bridleway" priority="1" numLanes="1" speed="2.78" allow="pedestrian" oneway="1" width="2.00"/>
    <type id="highway.bus_guideway" priority="1" numLanes="1" speed="27.78" allow="bus" oneway="1"/>
    <type id="highway.cycleway" priority="1" numLanes="1" speed="8.33" allow="bicycle" oneway="0" width="1.00"/>
    <type id="highway.footway" priority="1" numLanes="1" speed="2.78" allow="pedestrian" oneway="1" width="2.00"/>
    <type id="highway.ford" priority="1" numLanes="1" speed="2.78" allow="army" oneway="0"/>
    <type id="highway.living_street" priority="2" numLanes="1" speed="2.78" disallow="tram rail_urban rail rail_electric rail_fast ship" oneway="0"/>
    <type id="highway.motorway" priority="14" numLanes="2" speed="39.44" allow="private emergency authority army vip passenger hov taxi bus coach delivery truck trailer motorcycle evehicle custom1 custom2" oneway="1"/>
    <type id="highway.motorway_link" priority="9" numLanes="1" speed="22.22" allow="private emergency authority army vip passenger hov taxi bus coach delivery truck trailer motorcycle evehicle custom1 custom2" oneway="1"/>
    <type id="highway.path" priority="1" numLanes="1" speed="2.78" allow="pedestrian bicycle" oneway="0" width="2.00"/>
    <type id="highway.pedestrian" priority="1" numLanes="1" speed="2.78" allow="pedestrian" oneway="1" width="2.00"/>
    <type id="highway.primary" priority="12" numLanes="2" speed="27.78" disallow="tram rail_urban rail rail_electric rail_fast ship" oneway="0"/>
    <type id="highway.primary_link" priority="7" numLanes="1" speed="22.22" disallow="tram rail_urban rail rail_electric rail_fast ship" oneway="0"/>
    <type id="highway.raceway" priority="15" numLanes="2" speed="83.33" allow="vip" oneway="0"/>
    <type id="highway.residential" priority="3" numLanes="1" speed="13.89" disallow="tram rail_urban rail rail_electric rail_fast ship" oneway="0"/>
    <type id="highway.secondary" priority="11" numLanes="1" speed="27.78" disallow="tram rail_urban rail rail_electric rail_fast ship" oneway="0"/>
    <type id="highway.secondary_link" priority="6" numLanes="1" speed="22.22" disallow="tram rail_urban rail rail_electric rail_fast ship" oneway="0"/>
    <type id="highway.service" priority="1" numLanes="1" speed="5.56" allow="pedestrian delivery bicycle" oneway="0"/>
    <type id="highway.stairs" priority="1" numLanes="1" speed="1.39" allow="pedestrian" oneway="1" width="2.00"/>
    <type id="highway.step" priority="1" numLanes="1" speed="1.39" allow="pedestrian" oneway="1" width="2.00"/>
    <type id="highway.steps" priority="1" numLanes="1" speed="1.39" allow="pedestrian" oneway="1" width="2.00"/>
    <type id="highway.tertiary" priority="10" numLanes="1" speed="22.22" disallow="tram rail_urban rail rail_electric rail_fast ship" oneway="0"/>
    <type id="highway.tertiary_link" priority="5" numLanes="1" speed="22.22" disallow="tram rail_urban rail rail_electric rail_fast ship" oneway="0"/>
    <type id="highway.track" priority="1" numLanes="1" speed="5.56" allow="pedestrian motorcycle moped bicycle" oneway="0"/>
    <type id="highway.trunk" priority="13" numLanes="2" speed="27.78" disallow="pedestrian bicycle tram rail_urban rail rail_electric rail_fast ship" oneway="0"/>
    <type id="highway.trunk_link" priority="8" numLanes="1" speed="22.22" disallow="pedestrian bicycle tram rail_urban rail rail_electric rail_fast ship" oneway="0"/>
    <type id="highway.unclassified" priority="4" numLanes="1" speed="13.89" disallow="tram rail_urban rail rail_electric rail_fast ship" oneway="0"/>
    <type id="highway.unsurfaced" priority="1" numLanes="1" speed="8.33" disallow="tram rail_urban rail rail_electric rail_fast ship" oneway="0"/>
    <type id="railway.highspeed" priority="21" numLanes="1" speed="69.44" allow="rail_fast" oneway="1"/>
    <type id="railway.light_rail" priority="19" numLanes="1" speed="27.78" allow="rail_urban" oneway="1"/>
    <type id="railway.preserved" priority="16" numLanes="1" speed="27.78" allow="rail" oneway="1"/>
    <type id="railway.rail" priority="20" numLanes="1" speed="44.44" allow="rail" oneway="1"/>
    <type id="railway.subway" priority="18" numLanes="1" speed="27.78" allow="rail_urban" oneway="1"/>
    <type id="railway.tram" priority="17" numLanes="1" speed="13.89" allow="tram" oneway="1"/>

    <edge id=":1075544310_0" function="internal">
        <lane id=":1075544310_0_0" index="0" disallow="tram rail_urban rail rail_electric rail_fast ship" speed="3.65" length="4.67" shape="753.42,1113.54 753.80,1112.15 754.43,1111.52 755.31,1111.64 756.45,1112.52"/>
    </edge>
    <edge id=":1157325174_0" function="internal">
        <lane id=":1157325174_0_0" index="0" disallow="tram rail_urban rail rail_electric rail_fast ship" speed="13.89" length="4.99" shape="1408.49,893.95 1405.45,897.88"/>
        <lane id=":1157325174_0_1" index="1" disallow="tram rail_urban rail rail_electric rail_fast ship" speed="13.89" length="4.99" shape="1405.98,891.97 1402.91,895.93"/>
    </edge>
    <edge id=":1206624326_0" function="internal">
        <lane id=":1206624326_0_0" index="0" disallow="tram rail_urban rail rail_electric rail_fast ship" speed="8.33" length="6.19" shape="254.03,674.59 247.86,674.15"/>
    </edge>
    <edge id=":1206624326_1" function="internal">
        <lane id=":1206624326_1_0" index="0" allow="pedestrian delivery bicycle" speed="6.06" length="7.80" shape="254.03,674.59 252.68,674.09 251.79,672.84 251.37,670.83 251.42,668.06"/>
    </edge>
    <edge id=":1206624326_2" function="internal">
        <lane id=":1206624326_2_0" index="0" disallow="tram rail_urban rail rail_electric rail_fast ship" speed="3.65" length="4.67" shape="254.03,674.59 252.89,673.70 252.55,672.88 253.01,672.11 254.26,671.40"/>
    </edge>
    <edge id=":1206624326_3" function="internal">
        <lane id=":1206624326_3_0" index="0" allow="pedestrian delivery bicycle" speed="5.08" length="5.02" shape="248.08,670.96 249.44,670.86 250.45,670.34 251.11,669.41 251.42,668.06"/>
    </edge>
    <edge id=":1206624326_4" function="internal">
        <lane id=":1206624326_4_0" index="0" disallow="tram rail_urban rail rail_electric rail_fast ship" speed="8.33" length="6.20" shape="248.08,670.96 254.26,671.40"/>
    </edge>
    <edge id=":1206624326_5" function="internal">
        <lane id=":1206624326_5_0" index="0" disallow="tram rail_urban rail rail_electric rail_fast ship" speed="3.65" length="4.67" shape="248.08,670.96 249.22,671.84 249.57,672.67 249.11,673.44 247.86,674.15"/>
    </edge>
    <edge id=":1210473765_0" function="internal">
        <lane id=":1210473765_0_0" index="0" allow="pedestrian delivery bicycle" speed="3.93" length="2.16" shape="646.93,1214.26 646.65,1213.75 646.28,1213.42 645.80,1213.25 645.22,1213.26"/>
    </edge>
    <edge id=":1210473765_1" function="internal">
        <lane id=":1210473765_1_0" index="0" allow="pedestrian delivery bicycle" speed="6.13" length="6.48" shape="644.78,1210.09 646.51,1210.08 647.94,1210.58 649.07,1211.58 649.91,1213.09"/>
    </edge>
    <edge id=":1210473765_2" function="internal">
        <lane id=":1210473765_2_0" index="0" disallow="tram rail_urban rail rail_electric rail_fast ship" speed="3.65" length="4.67" shape="644.78,1210.09 646.08,1210.71 646.59,1211.45 646.30,1212.30 645.22,1213.26"/>
    </edge>
    <edge id=":1210473819_0" function="internal">
        <lane id=":1210473819_0_0" index="0" allow="pedestrian delivery bicycle" speed="3.65" length="4.67" shape="686.57,1320.22 686.20,1321.61 685.57,1322.25 684.68,1322.12 683.54,1321.24"/>
    </edge>
    <edge id=":1217651538_0" function="internal">
        <lane id=":1217651538_0_0" index="0" allow="pedestrian delivery bicycle" speed="5.17" length="5.16" shape="771.55,927.51 770.28,926.79 769.10,926.62 768.00,926.98 767.00,927.89"/>
    </edge>
    <edge id=":1217651538_1" function="internal">
        <lane id=":1217651538_1_0" index="0" allow="pedestrian delivery bicycle" speed="6.87" length="10.36" shape="771.55,927.51 769.56,925.51 768.72,923.34 769.01,921.02 770.45,918.53"/>
    </edge>
    <edge id=":1217651538_2" function="internal">
        <lane id=":1217651538_2_0" index="0" allow="pedestrian delivery bicycle" speed="3.65" length="4.67" shape="771.55,927.51 771.07,926.15 771.23,925.27 772.03,924.87 773.47,924.95"/>
    </edge>
    <edge id=":1217651538_3" function="internal">
        <lane id=":1217651538_3_0" index="0" allow="pedestrian delivery bicycle" speed="5.03" length="5.06" shape="772.92,920.57 772.22,921.78 772.08,922.91 772.50,923.97 773.47,924.95"/>
    </edge>
    <edge id=":1217651538_4" function="internal">
        <lane id=":1217651538_4_0" index="0" disallow="tram rail_urban rail rail_electric rail_fast ship" speed="8.33" length="9.42" shape="772.92,920.57 767.00,927.89"/>
    </edge>
    <edge id=":1217651538_5" function="internal">
        <lane id=":1217651538_5_0" index="0" disallow="tram rail_urban rail rail_electric rail_fast ship" speed="3.65" length="2.34" shape="772.92,920.57 771.54,920.99 770.67,920.78"/>
    </edge>
    <edge id=":1217651538_9" function="internal">
        <lane id=":1217651538_9_0" index="0" disallow="tram rail_urban rail rail_electric rail_fast ship" speed="3.65" length="2.34" shape="770.67,920.78 770.31,919.97 770.45,918.53"/>
    </edge>
    <edge id=":1217651538_6" function="internal">
        <lane id=":1217651538_6_0" index="0" disallow="tram rail_urban rail rail_electric rail_fast ship" speed="8.33" length="9.45" shape="764.52,925.88 770.45,918.53"/>
    </edge>
    <edge id=":1217651538_7" function="internal">
        <lane id=":1217651538_7_0" index="0" allow="pedestrian delivery bicycle" speed="6.95" length="5.02" shape="764.52,925.88 766.52,924.04 768.68,923.27"/>
    </edge>
    <edge id=":1217651538_8" function="internal">
        <lane id=":1217651538_8_0" index="0" disallow="tram rail_urban rail rail_electric rail_fast ship" speed="3.65" length="2.34" shape="764.52,925.88 765.89,925.45 766.77,925.64"/>
    </edge>
    <edge id=":1217651538_10" function="internal">
        <lane id=":1217651538_10_0" index="0" allow="pedestrian delivery bicycle" speed="6.95" length="5.17" shape="768.68,923.27 771.00,923.57 773.47,924.95"/>
    </edge>
    <edge id=":1217651538_11" function="internal">
        <lane id=":1217651538_11_0" index="0" disallow="tram rail_urban rail rail_electric rail_fast ship" speed="3.65" length="2.34" shape="766.77,925.64 767.14,926.46 767.00,927.89"/>
    </edge>
    <edge id=":1261425426_0" function="internal">
        <lane id=":1261425426_0_0" index="0" disallow="tram rail_urban rail rail_electric rail_fast ship" speed="13.89" length="5.00" shape="2033.91,1300.82 2036.99,1304.76"/>
        <lane id=":1261425426_0_1" index="1" disallow="tram rail_urban rail rail_electric rail_fast ship" speed="13.89" length="5.00" shape="2031.39,1302.79 2034.47,1306.73"/>
    </edge>
    <edge id=":1266415965_0" function="internal">
        <lane id=":1266415965_0_0" index="0" allow="pedestrian delivery bicycle" speed="5.02" length="5.03" shape="2005.25,1193.85 2006.23,1194.82 2007.28,1195.24 2008.41,1195.11 2009.60,1194.42"/>
    </edge>
    <edge id=":1266415965_1" function="internal">
        <lane id=":1266415965_1_0" index="0" allow="pedestrian delivery bicycle" speed="3.65" length="4.67" shape="2005.25,1193.85 2005.33,1195.29 2004.93,1196.09 2004.05,1196.25 2002.69,1195.77"/>
    </edge>
    <edge id=":1266415965_2" function="internal">
        <lane id=":1266415965_2_0" index="0" allow="pedestrian delivery bicycle" speed="5.14" length="5.10" shape="2002.25,1200.26 2003.17,1199.26 2003.55,1198.18 2003.39,1197.02 2002.69,1195.77"/>
    </edge>
    <edge id=":1266415965_3" function="internal">
        <lane id=":1266415965_3_0" index="0" disallow="tram rail_urban rail rail_electric rail_fast ship" speed="13.89" length="9.35" shape="2002.25,1200.26 2009.60,1194.42"/>
        <lane id=":1266415965_3_1" index="1" disallow="tram rail_urban rail rail_electric rail_fast ship" speed="13.89" length="9.35" shape="2004.26,1202.75 2011.58,1196.93"/>
        <lane id=":1266415965_3_2" index="2" disallow="tram rail_urban rail rail_electric rail_fast ship" speed="13.89" length="9.35" shape="2006.26,1205.24 2013.56,1199.45"/>
    </edge>
    <edge id=":1275468904_0" function="internal">
        <lane id=":1275468904_0_0" index="0" disallow="tram rail_urban rail rail_electric rail_fast ship" speed="13.89" length="4.96" shape="1619.33,1141.85 1617.38,1137.29"/>
    </edge>
    <edge id=":1275468904_1" function="internal">
        <lane id=":1275468904_1_0" index="0" disallow="tram rail_urban rail rail_electric rail_fast ship" speed="3.65" length="2.34" shape="1619.33,1141.85 1619.60,1140.43 1620.18,1139.75"/>
    </edge>
    <edge id=":1275468904_4" function="internal">
        <lane id=":1275468904_4_0" index="0" disallow="tram rail_urban rail rail_electric rail_fast ship" speed="3.65" length="2.34" shape="1620.18,1139.75 1621.07,1139.81 1622.28,1140.60"/>
    </edge>
    <edge id=":1275468904_2" function="internal">
        <lane id=":1275468904_2_0" index="0" disallow="tram rail_urban rail rail_electric rail_fast ship" speed="13.89" length="4.99" shape="1620.32,1136.02 1622.28,1140.60"/>
    </edge>
    <edge id=":1275468904_3" function="internal">
        <lane id=":1275468904_3_0" index="0" disallow="tram rail_urban rail rail_electric rail_fast ship" speed="3.65" length="2.34" shape="1620.32,1136.02 1620.06,1137.44 1619.49,1138.12"/>
    </edge>
    <edge id=":1275468904_5" function="internal">
        <lane id=":1275468904_5_0" index="0" disallow="tram rail_urban rail rail_electric rail_fast ship" speed="3.65" length="2.34" shape="1619.49,1138.12 1618.59,1138.07 1617.38,1137.29"/>
    </edge>
    <edge id=":1275468911_0" function="internal">
        <lane id=":1275468911_0_0" index="0" allow="pedestrian delivery bicycle" speed="3.65" length="4.67" shape="2030.39,1197.50 2028.95,1197.62 2028.14,1197.24 2027.96,1196.36 2028.41,1194.99"/>
    </edge>
    <edge id=":1275468917_0" function="internal">
        <lane id=":1275468917_0_0" index="0" allow="pedestrian delivery bicycle" speed="3.65" length="4.67" shape="2059.79,1170.26 2061.23,1170.15 2062.04,1170.53 2062.22,1171.41 2061.77,1172.78"/>
    </edge>
    <edge id=":1275477851_0" function="internal">
        <lane id=":1275477851_0_0" index="0" allow="pedestrian delivery bicycle" speed="8.33" length="0.29" shape="1964.02,1373.99 1963.91,1373.72"/>
    </edge>
    <edge id=":1275477851_1" function="internal">
        <lane id=":1275477851_1_0" index="0" disallow="tram rail_urban rail rail_electric rail_fast ship" speed="3.65" length="2.34" shape="1964.02,1373.99 1964.31,1372.58 1964.91,1371.91"/>
    </edge>
    <edge id=":1275477851_3" function="internal">
        <lane id=":1275477851_3_0" index="0" disallow="tram rail_urban rail rail_electric rail_fast ship" speed="3.65" length="2.34" shape="1964.91,1371.91 1965.80,1371.98 1966.99,1372.80"/>
    </edge>
    <edge id=":1275477851_2" function="internal">
        <lane id=":1275477851_2_0" index="0" allow="pedestrian delivery bicycle" speed="8.33" length="0.31" shape="1966.87,1372.52 1966.99,1372.80"/>
    </edge>
    <edge id=":1275477853_0" function="internal">
        <lane id=":1275477853_0_0" index="0" allow="pedestrian delivery bicycle" speed="3.65" length="4.67" shape="1863.34,1289.18 1861.92,1288.97 1861.21,1288.42 1861.23,1287.53 1861.96,1286.29"/>
    </edge>
    <edge id=":1371317063_0" function="internal">
        <lane id=":1371317063_0_0" index="0" disallow="tram rail_urban rail rail_electric rail_fast ship" speed="8.33" length="5.29" shape="916.36,714.18 911.80,711.48"/>
    </edge>
    <edge id=":1371317063_1" function="internal">
        <lane id=":1371317063_1_0" index="0" disallow="tram rail_urban rail rail_electric rail_fast ship" speed="3.65" length="4.67" shape="916.36,714.18 915.72,712.88 915.77,711.99 916.52,711.50 917.95,711.40"/>
    </edge>
    <edge id=":1371317063_2" function="internal">
        <lane id=":1371317063_2_0" index="0" disallow="tram rail_urban rail rail_electric rail_fast ship" speed="8.33" length="5.25" shape="913.44,708.73 917.95,711.40"/>
    </edge>
    <edge id=":1371317063_3" function="internal">
        <lane id=":1371317063_3_0" index="0" disallow="tram rail_urban rail rail_electric rail_fast ship" speed="3.65" length="4.67" shape="913.44,708.73 914.06,710.03 913.99,710.92 913.24,711.41 911.80,711.48"/>
    </edge>
    <edge id=":1387903273_0" function="internal">
        <lane id=":1387903273_0_0" index="0" disallow="tram rail_urban rail rail_electric rail_fast ship" speed="8.33" length="9.81" shape="268.70,803.04 271.56,803.58 273.53,804.00 275.50,804.24 278.39,804.19"/>
    </edge>
    <edge id=":1387903273_1" function="internal">
        <lane id=":1387903273_1_0" index="0" disallow="tram rail_urban rail rail_electric rail_fast ship" speed="4.98" length="8.94" shape="268.70,803.04 271.71,803.74 272.77,804.61 271.87,805.65 269.01,806.84"/>
    </edge>
    <edge id=":1446360398_0" function="internal">
        <lane id=":1446360398_0_0" index="0" allow="pedestrian delivery bicycle" speed="3.65" length="4.67" shape="268.99,1270.81 267.57,1271.06 266.72,1270.76 266.46,1269.91 266.77,1268.50"/>
    </edge>
    <edge id=":1447185655_0" function="internal">
        <lane id=":1447185655_0_0" index="0" disallow="tram rail_urban rail rail_electric rail_fast ship" speed="6.02" length="9.08" shape="287.18,1076.03 285.06,1074.55 283.13,1074.26 281.40,1075.16 279.87,1077.25"/>
    </edge>
    <edge id=":1447185655_1" function="internal">
        <lane id=":1447185655_1_0" index="0" disallow="tram rail_urban rail rail_electric rail_fast ship" speed="11.11" length="14.62" shape="287.18,1076.03 276.46,1066.09"/>
    </edge>
    <edge id=":1447185655_2" function="internal">
        <lane id=":1447185655_2_0" index="0" disallow="tram rail_urban rail rail_electric rail_fast ship" speed="3.65" length="2.34" shape="287.18,1076.03 286.85,1074.62 287.10,1073.76"/>
    </edge>
    <edge id=":1447185655_9" function="internal">
        <lane id=":1447185655_9_0" index="0" disallow="tram rail_urban rail rail_electric rail_fast ship" speed="3.65" length="2.34" shape="287.10,1073.76 287.94,1073.45 289.36,1073.68"/>
    </edge>
    <edge id=":1447185655_3" function="internal">
        <lane id=":1447185655_3_0" index="0" disallow="tram rail_urban rail rail_electric rail_fast ship" speed="11.11" length="14.63" shape="278.63,1063.74 289.36,1073.68"/>
    </edge>
    <edge id=":1447185655_4" function="internal">
        <lane id=":1447185655_4_0" index="0" disallow="tram rail_urban rail rail_electric rail_fast ship" speed="8.33" length="5.59" shape="278.63,1063.74 280.83,1066.54 281.40,1068.49"/>
    </edge>
    <edge id=":1447185655_5" function="internal">
        <lane id=":1447185655_5_0" index="0" disallow="tram rail_urban rail rail_electric rail_fast ship" speed="3.65" length="2.34" shape="278.63,1063.74 278.97,1065.14 278.72,1066.00"/>
    </edge>
    <edge id=":1447185655_10" function="internal">
        <lane id=":1447185655_10_0" index="0" disallow="tram rail_urban rail rail_electric rail_fast ship" speed="8.33" length="9.14" shape="281.40,1068.49 281.77,1069.73 281.45,1073.30 279.87,1077.25"/>
    </edge>
    <edge id=":1447185655_11" function="internal">
        <lane id=":1447185655_11_0" index="0" disallow="tram rail_urban rail rail_electric rail_fast ship" speed="3.65" length="2.34" shape="278.72,1066.00 277.88,1066.31 276.46,1066.09"/>
    </edge>
    <edge id=":1447185655_6" function="internal">
        <lane id=":1447185655_6_0" index="0" disallow="tram rail_urban rail rail_electric rail_fast ship" speed="7.69" length="10.49" shape="277.05,1075.75 278.23,1072.85 278.53,1070.28 277.94,1068.02 276.46,1066.09"/>
    </edge>
    <edge id=":1447185655_7" function="internal">
        <lane id=":1447185655_7_0" index="0" disallow="tram rail_urban rail rail_electric rail_fast ship" speed="7.62" length="15.28" shape="277.05,1075.75 279.62,1072.23 282.53,1070.71 285.78,1071.20 289.36,1073.68"/>
    </edge>
    <edge id=":1447185655_8" function="internal">
        <lane id=":1447185655_8_0" index="0" disallow="tram rail_urban rail rail_electric rail_fast ship" speed="3.65" length="4.67" shape="277.05,1075.75 278.32,1075.06 279.21,1075.09 279.73,1075.82 279.87,1077.25"/>
    </edge>
    <edge id=":1449754450_0" function="internal">
        <lane id=":1449754450_0_0" index="0" allow="pedestrian delivery bicycle" speed="4.93" length="5.13" shape="858.24,723.19 856.86,722.84 855.74,723.04 854.89,723.80 854.30,725.10"/>
    </edge>
    <edge id=":1449754450_1" function="internal">
        <lane id=":1449754450_1_0" index="0" allow="pedestrian delivery bicycle" speed="5.56" length="9.44" shape="858.24,723.19 849.51,719.62"/>
    </edge>
    <edge id=":1449754450_2" function="internal">
        <lane id=":1449754450_2_0" index="0" allow="pedestrian delivery bicycle" speed="3.65" length="4.67" shape="858.24,723.19 857.44,721.99 857.37,721.10 858.04,720.51 859.46,720.22"/>
    </edge>
    <edge id=":1449754450_3" function="internal">
        <lane id=":1449754450_3_0" index="0" allow="pedestrian delivery bicycle" speed="5.56" length="9.44" shape="850.72,716.66 859.46,720.22"/>
    </edge>
    <edge id=":1449754450_4" function="internal">
        <lane id=":1449754450_4_0" index="0" allow="pedestrian delivery bicycle" speed="5.56" length="10.22" shape="850.72,716.66 852.96,718.01 854.31,719.87 854.75,722.23 854.30,725.10"/>
    </edge>
    <edge id=":1449754450_5" function="internal">
        <lane id=":1449754450_5_0" index="0" allow="pedestrian delivery bicycle" speed="3.65" length="4.67" shape="850.72,716.66 851.53,717.85 851.59,718.74 850.92,719.33 849.51,719.62"/>
    </edge>
    <edge id=":1449754450_6" function="internal">
        <lane id=":1449754450_6_0" index="0" allow="pedestrian delivery bicycle" speed="5.41" length="5.45" shape="851.22,724.21 851.49,722.62 851.30,721.32 850.64,720.32 849.51,719.62"/>
    </edge>
    <edge id=":1449754450_7" function="internal">
        <lane id=":1449754450_7_0" index="0" allow="pedestrian delivery bicycle" speed="5.56" length="10.70" shape="851.22,724.21 852.45,721.50 854.23,719.93 856.57,719.50 859.46,720.22"/>
    </edge>
    <edge id=":1449754450_8" function="internal">
        <lane id=":1449754450_8_0" index="0" allow="pedestrian delivery bicycle" speed="3.65" length="4.67" shape="851.22,724.21 852.33,723.28 853.21,723.12 853.86,723.72 854.30,725.10"/>
    </edge>
    <edge id=":1457124706_0" function="internal">
        <lane id=":1457124706_0_0" index="0" allow="pedestrian delivery bicycle" speed="3.65" length="4.67" shape="838.42,669.61 839.33,668.49 840.17,668.17 840.92,668.65 841.60,669.92"/>
    </edge>
    <edge id=":1457124739_0" function="internal">
        <lane id=":1457124739_0_0" index="0" allow="pedestrian delivery bicycle" speed="5.56" length="8.81" shape="838.76,715.23 836.73,714.07 835.35,712.52 834.63,710.58 834.55,708.25"/>
    </edge>
    <edge id=":1457124739_1" function="internal">
        <lane id=":1457124739_1_0" index="0" allow="pedestrian delivery bicycle" speed="3.65" length="4.67" shape="838.76,715.23 837.95,714.04 837.88,713.14 838.55,712.55 839.97,712.27"/>
    </edge>
    <edge id=":1457124739_2" function="internal">
        <lane id=":1457124739_2_0" index="0" allow="pedestrian delivery bicycle" speed="5.44" length="4.67" shape="837.74,708.57 837.78,709.80 838.16,710.83 838.89,711.65 839.97,712.27"/>
    </edge>
    <edge id=":1457124739_3" function="internal">
        <lane id=":1457124739_3_0" index="0" allow="pedestrian delivery bicycle" speed="3.65" length="4.67" shape="837.74,708.57 836.82,709.68 835.99,710.00 835.23,709.52 834.55,708.25"/>
    </edge>
    <edge id=":1457124764_0" function="internal">
        <lane id=":1457124764_0_0" index="0" allow="pedestrian delivery bicycle" speed="3.65" length="4.67" shape="880.12,728.66 880.93,729.86 880.99,730.75 880.32,731.34 878.91,731.63"/>
    </edge>
    <edge id=":1472911019_0" function="internal">
        <lane id=":1472911019_0_0" index="0" disallow="tram rail_urban rail rail_electric rail_fast ship" speed="13.89" length="4.99" shape="1273.59,661.67 1269.32,659.07"/>
        <lane id=":1472911019_0_1" index="1" disallow="tram rail_urban rail rail_electric rail_fast ship" speed="13.89" length="4.99" shape="1275.25,658.94 1270.99,656.34"/>
    </edge>
    <edge id=":1473258655_0" function="internal">
        <lane id=":1473258655_0_0" index="0" allow="pedestrian bicycle" speed="2.78" length="2.92" width="2.00" shape="1002.58,776.94 1002.23,776.11 1002.30,775.55 1002.78,775.27 1003.68,775.27"/>
    </edge>
    <edge id=":1473258656_0" function="internal">
        <lane id=":1473258656_0_0" index="0" allow="pedestrian delivery bicycle" speed="4.17" length="5.46" shape="1053.86,798.66 1052.64,798.14 1051.44,798.18 1050.26,798.76 1049.11,799.90"/>
    </edge>
    <edge id=":1473258656_1" function="internal">
        <lane id=":1473258656_1_0" index="0" disallow="tram rail_urban rail rail_electric rail_fast ship" speed="2.78" length="9.44" shape="1053.86,798.66 1045.92,793.56"/>
    </edge>
    <edge id=":1473258656_2" function="internal">
        <lane id=":1473258656_2_0" index="0" disallow="tram rail_urban rail rail_electric rail_fast ship" speed="2.78" length="2.34" shape="1053.86,798.66 1053.29,797.34 1053.38,796.45"/>
    </edge>
    <edge id=":1473258656_9" function="internal">
        <lane id=":1473258656_9_0" index="0" disallow="tram rail_urban rail rail_electric rail_fast ship" speed="2.78" length="2.34" shape="1053.38,796.45 1054.15,795.99 1055.59,795.97"/>
    </edge>
    <edge id=":1473258656_3" function="internal">
        <lane id=":1473258656_3_0" index="0" disallow="tram rail_urban rail rail_electric rail_fast ship" speed="2.78" length="9.44" shape="1047.65,790.87 1055.59,795.97"/>
    </edge>
    <edge id=":1473258656_4" function="internal">
        <lane id=":1473258656_4_0" index="0" allow="pedestrian delivery bicycle" speed="4.17" length="5.17" shape="1047.65,790.87 1049.90,792.82 1050.82,794.80"/>
    </edge>
    <edge id=":1473258656_5" function="internal">
        <lane id=":1473258656_5_0" index="0" disallow="tram rail_urban rail rail_electric rail_fast ship" speed="2.78" length="2.34" shape="1047.65,790.87 1048.23,792.19 1048.13,793.08"/>
    </edge>
    <edge id=":1473258656_10" function="internal">
        <lane id=":1473258656_10_0" index="0" allow="pedestrian delivery bicycle" speed="4.17" length="5.55" shape="1050.82,794.80 1050.90,794.97 1050.63,797.33 1049.11,799.90"/>
    </edge>
    <edge id=":1473258656_11" function="internal">
        <lane id=":1473258656_11_0" index="0" disallow="tram rail_urban rail rail_electric rail_fast ship" speed="2.78" length="2.34" shape="1048.13,793.08 1047.36,793.53 1045.92,793.56"/>
    </edge>
    <edge id=":1473258656_6" function="internal">
        <lane id=":1473258656_6_0" index="0" allow="pedestrian delivery bicycle" speed="4.17" length="5.14" shape="1046.62,797.89 1047.35,796.66 1047.48,795.53 1047.00,794.49 1045.92,793.56"/>
    </edge>
    <edge id=":1473258656_7" function="internal">
        <lane id=":1473258656_7_0" index="0" allow="pedestrian delivery bicycle" speed="4.17" length="10.22" shape="1046.62,797.89 1048.72,795.87 1050.91,794.88 1053.20,794.91 1055.59,795.97"/>
    </edge>
    <edge id=":1473258656_8" function="internal">
        <lane id=":1473258656_8_0" index="0" allow="pedestrian delivery bicycle" speed="3.65" length="4.67" shape="1046.62,797.89 1048.00,797.46 1048.87,797.65 1049.24,798.46 1049.11,799.90"/>
    </edge>
    <edge id=":1473258664_0" function="internal">
        <lane id=":1473258664_0_0" index="0" allow="pedestrian delivery bicycle" speed="4.17" length="5.07" shape="1111.99,836.05 1110.73,835.43 1109.60,835.38 1108.59,835.91 1107.71,837.00"/>
    </edge>
    <edge id=":1473258664_1" function="internal">
        <lane id=":1473258664_1_0" index="0" disallow="tram rail_urban rail rail_electric rail_fast ship" speed="2.78" length="9.45" shape="1111.99,836.05 1104.10,830.84"/>
    </edge>
    <edge id=":1473258664_2" function="internal">