<?xml version="1.0" encoding="UTF-8"?>

<!-- generated on 04/03/21 23:28:18 by Eclipse SUMO duarouter Version 1.8.0
<configuration xmlns:xsi="http://www.w3.org/2001/XMLSchema-instance" xsi:noNamespaceSchemaLocation="http://sumo.dlr.de/xsd/duarouterConfiguration.xsd">

    <input>
        <net-file value="C:\Users\Arkonaire\Sumo\2021-04-03-23-27-18\osm.net.xml"/>
        <route-files value="C:\Users\Arkonaire\Sumo\2021-04-03-23-27-18\osm.truck.trips.xml"/>
    </input>

    <output>
        <output-file value="C:\Users\Arkonaire\Sumo\2021-04-03-23-27-18\osm.truck.trips.xml.tmp"/>
        <write-trips value="true"/>
    </output>

    <time>
        <begin value="0"/>
        <end value="3600"/>
    </time>

    <report>
        <no-warnings value="true"/>
        <ignore-errors value="true"/>
        <no-step-log value="true"/>
    </report>

</configuration>
-->

<routes xmlns:xsi="http://www.w3.org/2001/XMLSchema-instance" xsi:noNamespaceSchemaLocation="http://sumo.dlr.de/xsd/routes_file.xsd">
    <vType id="truck_truck" vClass="truck"/>
    <trip id="truck0" type="truck_truck" depart="0.00" departLane="best" from="24914141#5" to="-136571494#0"/>
    <trip id="truck1" type="truck_truck" depart="13.78" departLane="best" departSpeed="max" from="-4396823" to="-387892378"/>
    <trip id="truck2" type="truck_truck" depart="27.56" departLane="best" from="51167934#1" to="-19002363#10"/>
    <trip id="truck3" type="truck_truck" depart="41.35" departLane="best" from="-339201177#3" to="234463931#3"/>
    <trip id="truck5" type="truck_truck" depart="68.91" departLane="best" from="454285423#1" to="-128396190#0"/>
    <trip id="truck6" type="truck_truck" depart="82.69" departLane="best" departSpeed="max" from="454285423#0" to="35269774#2"/>
    <trip id="truck7" type="truck_truck" depart="96.48" departLane="best" from="-195397561#6" to="-194962375#1"/>
    <trip id="truck8" type="truck_truck" depart="110.26" departLane="best" from="4610479#0" to="30721660#0"/>
    <trip id="truck9" type="truck_truck" depart="124.04" departLane="best" departSpeed="max" from="454285423#0" to="415280722"/>
    <trip id="truck11" type="truck_truck" depart="151.61" departLane="best" from="-84960597#1" to="24243107#0"/>
    <trip id="truck13" type="truck_truck" depart="179.17" departLane="best" from="312357351#0" to="-15971189"/>
    <trip id="truck14" type="truck_truck" depart="192.95" departLane="best" from="-194962375#0" to="-437325054#1"/>
    <trip id="truck15" type="truck_truck" depart="206.74" departLane="best" departSpeed="max" from="-202156991#2" to="-6227658#2"/>
    <trip id="truck16" type="truck_truck" depart="220.52" departLane="best" departSpeed="max" from="24914141#0" to="136571494#1"/>
    <trip id="truck17" type="truck_truck" depart="234.30" departLane="best" from="-437325054#1" to="61583424#0"/>
    <trip id="truck18" type="truck_truck" depart="248.08" departLane="best" departSpeed="max" from="24993933#0" to="30721660#4"/>
    <trip id="truck19" type="truck_truck" depart="261.86" departLane="best" from="-24243101" to="156364556#1"/>
    <trip id="truck20" type="truck_truck" depart="275.65" departLane="best" from="23013165#1" to="34848160#3"/>
    <trip id="truck21" type="truck_truck" depart="289.43" departLane="best" from="4610472#2" to="4610362#2"/>
    <trip id="truck22" type="truck_truck" depart="303.21" departLane="best" departSpeed="max" from="-34848160#3" to="-156364570#1"/>
    <trip id="truck23" type="truck_truck" depart="316.99" departLane="best" departSpeed="max" from="-4613293" to="-534588621#0"/>
    <trip id="truck24" type="truck_truck" depart="330.78" departLane="best" from="-316746323#2" to="61584187#3"/>
    <trip id="truck25" type="truck_truck" depart="344.56" departLane="best" from="465376254" to="100405009#3"/>
    <trip id="truck26" type="truck_truck" depart="358.34" departLane="best" departSpeed="max" from="122820534#0" to="-370359204#0"/>
    <trip id="truck28" type="truck_truck" depart="385.91" departLane="best" from="437325047#2" to="19002363#3"/>
    <trip id="truck29" type="truck_truck" depart="399.69" departLane="best" from="751595929#0" to="465376254"/>
    <trip id="truck31" type="truck_truck" depart="427.25" departLane="best" from="30721660#0" to="24241762#1"/>
    <trip id="truck32" type="truck_truck" depart="441.04" departLane="best" from="-23121445#0" to="190447768#2"/>
    <trip id="truck33" type="truck_truck" depart="454.82" departLane="best" from="465376254" to="-51167934#1"/>
    <trip id="truck34" type="truck_truck" depart="468.60" departLane="best" from="19002363#3" to="-28016312#0"/>
    <trip id="truck36" type="truck_truck" depart="496.16" departLane="best" from="370359204#0" to="24241762#1"/>
    <trip id="truck37" type="truck_truck" depart="509.95" departLane="best" departSpeed="max" from="389705411#0" to="23813206#2"/>
    <trip id="truck38" type="truck_truck" depart="523.73" departLane="best" departSpeed="max" from="-11483007#2" to="61583423#1"/>
    <trip id="truck39" type="truck_truck" depart="537.51" departLane="best" from="465376255#2" to="4613295"/>
    <trip id="truck41" type="truck_truck" depart="565.08" departLane="best" from="465376255#2" to="61584187#4"/>
    <trip id="truck42" type="truck_truck" depart="578.86" departLane="best" from="-195397541#1" to="23013165#0"/>
    <trip id="truck43" type="truck_truck" depart="592.64" departLane="best" from="-19002363#1" to="4610351#1"/>
    <trip id="truck44" type="truck_truck" depart="606.42" departLane="best" from="-437325047#5" to="4773465#1"/>
    <trip id="truck45" type="truck_truck" depart="620.21" departLane="best" departSpeed="max" from="136571494#0" to="-35578576#1"/>
    <trip id="truck48" type="truck_truck" depart="661.55" departLane="best" departSpeed="max" from="158023913#0" to="23809678#1"/>
    <trip id="truck49" type="truck_truck" depart="675.34" departLane="best" from="-23121445#5" to="-437325047#0"/>
    <trip id="truck51" type="truck_truck" depart="702.90" departLane="best" departSpeed="max" from="-34848160#3" to="-370359204#0"/>
    <trip id="truck53" type="truck_truck" depart="730.46" departLane="best" departSpeed="max" from="-34848160#3" to="523630409"/>
    <trip id="truck54" type="truck_truck" depart="744.25" departLane="best" from="4612981#1" to="-168940071#0"/>
    <trip id="truck55" type="truck_truck" depart="758.03" departLane="best" from="-339201177#0" to="-234463931#1"/>
    <trip id="truck56" type="truck_truck" depart="771.81" departLane="best" from="-202156991#1" to="190447766#1"/>
    <trip id="truck57" type="truck_truck" depart="785.59" departLane="best" from="83517332#2" to="-194962375#2"/>
    <trip id="truck59" type="truck_truck" depart="813.16" departLane="best" from="4613292#0" to="-4610472#4"/>
    <trip id="truck60" type="truck_truck" depart="826.94" departLane="best" departSpeed="max" from="136571494#0" to="-6227658#2"/>
    <trip id="truck61" type="truck_truck" depart="840.72" departLane="best" from="22972195#2" to="-165415464#1"/>
    <trip id="truck62" type="truck_truck" depart="854.51" departLane="best" from="84960597#1" to="4613295"/>
    <trip id="truck63" type="truck_truck" depart="868.29" departLane="best" departSpeed="max" from="750204886" to="61583423#0"/>
    <trip id="truck64" type="truck_truck" depart="882.07" departLane="best" from="4610479#1" to="-24993933#0"/>
    <trip id="truck65" type="truck_truck" depart="895.85" departLane="best" from="168942727#3" to="-35578576#2"/>
    <trip id="truck66" type="truck_truck" depart="909.64" departLane="best" departSpeed="max" from="165415464#0" to="19002363#3"/>
    <trip id="truck67" type="truck_truck" depart="923.42" departLane="best" departSpeed="max" from="686908626" to="84960595"/>
    <trip id="truck68" type="truck_truck" depart="937.20" departLane="best" departSpeed="max" from="-24241762#2" to="-751595929#0"/>
    <trip id="truck69" type="truck_truck" depart="950.98" departLane="best" departSpeed="max" from="750204886" to="25294729#1"/>
    <trip id="truck70" type="truck_truck" depart="964.76" departLane="best" from="202157002#1" to="437325047#5"/>
    <trip id="truck73" type="truck_truck" depart="1006.11" departLane="best" from="-24241790#2" to="72157174#1"/>
    <trip id="truck74" type="truck_truck" depart="1019.89" departLane="best" from="-194962375#0" to="-31313667#0"/>
    <trip id="truck75" type="truck_truck" depart="1033.68" departLane="best" departSpeed="max" from="-34848160#3" to="-23121445#0"/>
    <trip id="truck78" type="truck_truck" depart="1075.02" departLane="best" from="-31313667#0" to="370359204#1"/>
    <trip id="truck80" type="truck_truck" depart="1102.59" departLane="best" departSpeed="max" from="-4613293" to="4402228"/>
    <trip id="truck81" type="truck_truck" depart="1116.37" departLane="best" from="-19002363#2" to="202156991#1"/>
    <trip id="truck82" type="truck_truck" depart="1130.15" departLane="best" from="-19002363#2" to="-35578576#2"/>
    <trip id="truck83" type="truck_truck" depart="1143.94" departLane="best" from="-437325048#1" to="61583423#1"/>
    <trip id="truck84" type="truck_truck" depart="1157.72" departLane="best" from="24993933#2" to="-128396190#0"/>
    <trip id="truck85" type="truck_truck" depart="1171.50" departLane="best" departSpeed="max" from="-4396823" to="30721660#1"/>
    <trip id="truck86" type="truck_truck" depart="1185.28" departLane="best" departSpeed="max" from="24914141#0" to="-51167934#1"/>
    <trip id="truck87" type="truck_truck" depart="1199.06" departLane="best" from="4610476#3" to="-19002363#4"/>
    <trip id="truck88" type="truck_truck" depart="1212.85" departLane="best" departSpeed="max" from="136571494#0" to="-6227658#1"/>
    <trip id="truck89" type="truck_truck" depart="1226.63" departLane="best" departSpeed="max" from="-111251382#3" to="4610355#2"/>
    <trip id="truck90" type="truck_truck" depart="1240.41" departLane="best" departSpeed="max" from="24914141#0" to="-492340367#0"/>
    <trip id="truck92" type="truck_truck" depart="1267.98" departLane="best" departSpeed="max" from="54048862#0" to="24241797#3"/>
    <trip id="truck94" type="truck_truck" depart="1295.54" departLane="best" departSpeed="max" from="-23813206#2" to="-23121445#5"/>
    <trip id="truck96" type="truck_truck" depart="1323.11" departLane="best" from="534588621#1" to="-35578576#0"/>
    <trip id="truck97" type="truck_truck" depart="1336.89" departLane="best" from="-387892378" to="-195397561#0"/>
    <trip id="truck98" type="truck_truck" depart="1350.67" departLane="best" from="389705411#1" to="4790825#1"/>
    <trip id="truck100" type="truck_truck" depart="1378.24" departLane="best" departSpeed="max" from="-24241762#2" to="61583423#1"/>
    <trip id="truck102" type="truck_truck" depart="1405.80" departLane="best" from="454285423#3" to="4790825#1"/>
    <trip id="truck103" type="truck_truck" depart="1419.58" departLane="best" from="-51167934#1" to="61583423#1"/>
    <trip id="truck104" type="truck_truck" depart="1433.36" departLane="best" departSpeed="max" from="454285423#0" to="465398529#1"/>
    <trip id="truck105" type="truck_truck" depart="1447.15" departLane="best" from="454285423#3" to="-534588621#0"/>
    <trip id="truck108" type="truck_truck" depart="1488.49" departLane="best" departSpeed="max" from="168937986#0" to="100405009#1"/>
    <trip id="truck109" type="truck_truck" depart="1502.28" departLane="best" departSpeed="max" from="-11483007#2" to="-316746323#2"/>
    <trip id="truck110" type="truck_truck" depart="1516.06" departLane="best" departSpeed="max" from="-4790825#2" to="465398529#1"/>
    <trip id="truck111" type="truck_truck" depart="1529.84" departLane="best" from="24914992#1" to="168940071#2"/>
    <trip id="truck112" type="truck_truck" depart="1543.62" departLane="best" from="831694400" to="24241762#1"/>
    <trip id="truck115" type="truck_truck" depart="1584.97" departLane="best" from="-225400578#1" to="190447768#2"/>
    <trip id="truck116" type="truck_truck" depart="1598.75" departLane="best" from="339201185" to="100405009#3"/>
    <trip id="truck117" type="truck_truck" depart="1612.54" departLane="best" departSpeed="max" from="24243052#0" to="23809670#1"/>
    <trip id="truck118" type="truck_truck" depart="1626.32" departLane="best" departSpeed="max" from="-111251382#3" to="61583423#0"/>
    <trip id="truck120" type="truck_truck" depart="1653.88" departLane="best" from="344594962" to="340498976#2"/>
    <trip id="truck121" type="truck_truck" depart="1667.66" departLane="best" from="-751595929#0" to="-168940071#0"/>
    <trip id="truck122" type="truck_truck" depart="1681.45" departLane="best" from="28016312#0" to="112128418#2"/>
    <trip id="truck123" type="truck_truck" depart="1695.23" departLane="best" departSpeed="max" from="-4613293" to="46140382"/>
    <trip id="truck125" type="truck_truck" depart="1722.79" departLane="best" departSpeed="max" from="122820534#0" to="-751595929#0"/>
    <trip id="truck128" type="truck_truck" depart="1764.14" departLane="best" from="153698390#1" to="25302636#1"/>
    <trip id="truck129" type="truck_truck" depart="1777.92" departLane="best" from="437325048#0" to="-24993933#1"/>
    <trip id="truck133" type="truck_truck" depart="1833.05" departLane="best" from="4610480" to="-168940071#1"/>
    <trip id="truck135" type="truck_truck" depart="1860.62" departLane="best" from="19002357#1" to="-4610375"/>
    <trip id="truck136" type="truck_truck" depart="1874.40" departLane="best" from="35578559" to="4610355#2"/>
    <trip id="truck137" type="truck_truck" depart="1888.18" departLane="best" from="-222328410" to="19002363#4"/>
    <trip id="truck138" type="truck_truck" depart="1901.96" departLane="best" from="195397561#1" to="-165415464#1"/>
    <trip id="truck139" type="truck_truck" depart="1915.75" departLane="best" departSpeed="max" from="165415464#0" to="4610479#1"/>
    <trip id="truck141" type="truck_truck" depart="1943.31" departLane="best" from="339201177#0" to="234463931#2"/>
    <trip id="truck143" type="truck_truck" depart="1970.88" departLane="best" from="534588621#0" to="437325047#2"/>
    <trip id="truck144" type="truck_truck" depart="1984.66" departLane="best" from="168940071#1" to="-4612981#1"/>
    <trip id="truck145" type="truck_truck" depart="1998.44" departLane="best" from="-370359204#1" to="31313667#1"/>
    <trip id="truck146" type="truck_truck" depart="2012.22" departLane="best" departSpeed="max" from="246052428" to="-562707499"/>
    <trip id="truck147" type="truck_truck" depart="2026.01" departLane="best" from="-19002363#6" to="-750204886"/>
    <trip id="truck148" type="truck_truck" depart="2039.79" departLane="best" from="312357351#1" to="-168937986#0"/>
    <trip id="truck149" type="truck_truck" depart="2053.57" departLane="best" from="122820534#1" to="24241790#1"/>
    <trip id="truck150" type="truck_truck" depart="2067.35" departLane="best" departSpeed="max" from="136571494#0" to="-34848160#1"/>
    <trip id="truck151" type="truck_truck" depart="2081.14" departLane="best" departSpeed="max" from="136571494#0" to="523630409"/>
    <trip id="truck152" type="truck_truck" depart="2094.92" departLane="best" from="23809670#2" to="35269774#2"/>
    <trip id="truck155" type="truck_truck" depart="2136.26" departLane="best" from="-562707499" to="454285423#1"/>
    <trip id="truck156" type="truck_truck" depart="2150.05" departLane="best" from="4611698#1" to="6227658#2"/>
    <trip id="truck157" type="truck_truck" depart="2163.83" departLane="best" departSpeed="max" from="136571494#0" to="437325047#5"/>
    <trip id="truck158" type="truck_truck" depart="2177.61" departLane="best" from="222328410" to="30721660#0"/>
    <trip id="truck159" type="truck_truck" depart="2191.39" departLane="best" from="156364570#2" to="-153698390#1"/>
    <trip id="truck161" type="truck_truck" depart="2218.96" departLane="best" departSpeed="max" from="122820534#0" to="-24993933#0"/>
    <trip id="truck162" type="truck_truck" depart="2232.74" departLane="best" departSpeed="max" from="246052428" to="-137630045"/>
    <trip id="truck163" type="truck_truck" depart="2246.52" departLane="best" departSpeed="max" from="114667396#0" to="24990040"/>
    <trip id="truck164" type="truck_truck" depart="2260.31" departLane="best" from="-122820534#0" to="316746323#0"/>
    <trip id="truck165" type="truck_truck" depart="2274.09" departLane="best" from="-328920970" to="112128418#2"/>
    <trip id="truck166" type="truck_truck" depart="2287.87" departLane="best" from="35578576#0" to="4613295"/>
    <trip id="truck167" type="truck_truck" depart="2301.65" departLane="best" departSpeed="max" from="-427637455" to="-168942727#3"/>
    <trip id="truck168" type="truck_truck" depart="2315.44" departLane="best" departSpeed="max" from="-11483007#2" to="24241762#1"/>
    <trip id="truck169" type="truck_truck" depart="2329.22" departLane="best" from="84960597#1" to="11483007#0"/>
    <trip id="truck170" type="truck_truck" depart="2343.00" departLane="best" departSpeed="max" from="24993933#0" to="4610362#5"/>
    <trip id="truck171" type="truck_truck" depart="2356.78" departLane="best" from="24993933#1" to="454285423#1"/>
    <trip id="truck172" type="truck_truck" depart="2370.56" departLane="best" departSpeed="max" from="686908626" to="-339201177#2"/>
    <trip id="truck173" type="truck_truck" depart="2384.35" departLane="best" departSpeed="max" from="-11483007#2" to="-24241797#3"/>
    <trip id="truck174" type="truck_truck" depart="2398.13" departLane="best" from="-234463931#2" to="340498976#10"/>
    <trip id="truck175" type="truck_truck" depart="2411.91" departLane="best" from="23121445#2" to="-36892597#2"/>
    <trip id="truck176" type="truck_truck" depart="2425.69" departLane="best" from="309479676" to="4610355#2"/>
    <trip id="truck178" type="truck_truck" depart="2453.26" departLane="best" from="-225400578#1" to="-136571494#0"/>
    <trip id="truck180" type="truck_truck" depart="2480.82" departLane="best" from="72157172" to="168940071#0"/>
    <trip id="truck181" type="truck_truck" depart="2494.61" departLane="best" from="316746323#1" to="-168940071#3"/>
    <trip id="truck183" type="truck_truck" depart="2522.17" departLane="best" departSpeed="max" from="-202156991#2" to="4610355#2"/>
    <trip id="truck184" type="truck_truck" depart="2535.95" departLane="best" from="4610480" to="30720544#0"/>
    <trip id="truck185" type="truck_truck" depart="2549.74" departLane="best" from="-23121445#5" to="83517332#2"/>
    <trip id="truck187" type="truck_truck" depart="2577.30" departLane="best" from="139877314#1" to="153698394#1"/>
    <trip id="truck188" type="truck_truck" depart="2591.08" departLane="best" from="4610480" to="4613292#0"/>
    <trip id="truck189" type="truck_truck" depart="2604.86" departLane="best" from="31313667#1" to="194962375#1"/>
    <trip id="truck190" type="truck_truck" depart="2618.65" departLane="best" from="340498976#2" to="751595929#1"/>
    <trip id="truck192" type="truck_truck" depart="2646.21" departLane="best" from="202156994#0" to="22972219#0"/>
    <trip id="truck193" type="truck_truck" depart="2659.99" departLane="best" from="156364570#2" to="42103020#0"/>
    <trip id="truck194" type="truck_truck" depart="2673.78" departLane="best" from="-437325054#1" to="465376240#0"/>
    <trip id="truck195" type="truck_truck" depart="2687.56" departLane="best" from="4773465#2" to="-4610375"/>
    <trip id="truck196" type="truck_truck" depart="2701.34" departLane="best" departSpeed="max" from="168937986#0" to="30721660#4"/>
    <trip id="truck197" type="truck_truck" depart="2715.12" departLane="best" from="-84960597#1" to="-153698390#1"/>
    <trip id="truck199" type="truck_truck" depart="2742.69" departLane="best" from="-328920970" to="4610476#3"/>
    <trip id="truck200" type="truck_truck" depart="2756.47" departLane="best" departSpeed="max" from="-51167934#4" to="4790825#1"/>
    <trip id="truck202" type="truck_truck" depart="2784.04" departLane="best" departSpeed="max" from="-112128825#1" to="61584187#4"/>
    <trip id="truck204" type="truck_truck" depart="2811.60" departLane="best" from="171826985#3" to="4610472#1"/>
    <trip id="truck205" type="truck_truck" depart="2825.38" departLane="best" from="-195397561#6" to="-370359204#1"/>
    <trip id="truck206" type="truck_truck" depart="2839.16" departLane="best" from="30721662#0" to="100405009#2"/>
    <trip id="truck207" type="truck_truck" depart="2852.95" departLane="best" from="195411604" to="19002363#6"/>
    <trip id="truck208" type="truck_truck" depart="2866.73" departLane="best" from="34848160#2" to="112128418#2"/>
    <trip id="truck210" type="truck_truck" depart="2894.29" departLane="best" departSpeed="max" from="-427637455" to="-23121445#1"/>
    <trip id="truck212" type="truck_truck" depart="2921.86" departLane="best" from="-268002748#0" to="-36892597#1"/>
    <trip id="truck214" type="truck_truck" depart="2949.42" departLane="best" from="-454285423#3" to="-195397541#0"/>
    <trip id="truck216" type="truck_truck" depart="2976.99" departLane="best" from="756306892" to="24243107#0"/>
    <trip id="truck217" type="truck_truck" depart="2990.77" departLane="best" from="309147331#0" to="-23121445#4"/>
    <trip id="truck218" type="truck_truck" depart="3004.55" departLane="best" from="465376239" to="25294729#1"/>
    <trip id="truck219" type="truck_truck" depart="3018.34" departLane="best" from="-25302636#1" to="-165415464#1"/>
    <trip id="truck221" type="truck_truck" depart="3045.90" departLane="best" from="4610362#1" to="168940071#2"/>
    <trip id="truck223" type="truck_truck" depart="3073.46" departLane="best" from="-168937986#4" to="-24241790#2"/>
    <trip id="truck224" type="truck_truck" depart="3087.25" departLane="best" from="23121445#1" to="100405009#1"/>
    <trip id="truck225" type="truck_truck" depart="3101.03" departLane="best" from="83517339" to="-225400578#2"/>
    <trip id="truck226" type="truck_truck" depart="3114.81" departLane="best" from="83517336#2" to="100405009#2"/>
    <trip id="truck227" type="truck_truck" depart="3128.59" departLane="best" departSpeed="max" from="246052428" to="30721660#4"/>
    <trip id="truck229" type="truck_truck" depart="3156.16" departLane="best" from="268002748#0" to="-24243107#1"/>
    <trip id="truck230" type="truck_truck" depart="3169.94" departLane="best" from="-25294729#0" to="-168940071#3"/>
    <trip id="truck231" type="truck_truck" depart="3183.72" departLane="best" departSpeed="max" from="-111251382#3" to="195401017#5"/>
    <trip id="truck232" type="truck_truck" depart="3197.51" departLane="best" from="23852053#0" to="-750204886"/>
    <trip id="truck234" type="truck_truck" depart="3225.07" departLane="best" from="30721660#3" to="606078071#3"/>
    <trip id="truck236" type="truck_truck" depart="3252.64" departLane="best" from="268002748#0" to="61583423#1"/>
    <trip id="truck237" type="truck_truck" depart="3266.42" departLane="best" from="136571494#1" to="24241797#0"/>
    <trip id="truck238" type="truck_truck" depart="3280.20" departLane="best" departSpeed="max" from="24993933#0" to="534588621#1"/>
    <trip id="truck239" type="truck_truck" depart="3293.98" departLane="best" from="-24243107#1" to="100405009#3"/>
    <trip id="truck241" type="truck_truck" depart="3321.55" departLane="best" from="-4610472#0" to="-23121445#3"/>
    <trip id="truck242" type="truck_truck" depart="3335.33" departLane="best" from="30721660#4" to="35269774#2"/>
    <trip id="truck244" type="truck_truck" depart="3362.89" departLane="best" from="-156364570#1" to="190447767"/>
    <trip id="truck245" type="truck_truck" depart="3376.68" departLane="best" departSpeed="max" from="-4790825#2" to="-4610480"/>
    <trip id="truck246" type="truck_truck" depart="3390.46" departLane="best" from="-195397561#3" to="743631784"/>
    <trip id="truck247" type="truck_truck" depart="3404.24" departLane="best" from="4610374" to="25294729#1"/>
    <trip id="truck248" type="truck_truck" depart="3418.02" departLane="best" departSpeed="max" from="686908626" to="84960597#1"/>
    <trip id="truck253" type="truck_truck" depart="3486.94" departLane="best" from="-4610472#0" to="61584187#4"/>
    <trip id="truck254" type="truck_truck" depart="3500.72" departLane="best" from="4610351#0" to="24243092#1"/>
    <trip id="truck255" type="truck_truck" depart="3514.50" departLane="best" departSpeed="max" from="165415464#0" to="100405009#3"/>
    <trip id="truck257" type="truck_truck" depart="3542.06" departLane="best" from="83517336#0" to="339201177#1"/>
    <trip id="truck258" type="truck_truck" depart="3555.85" departLane="best" from="-268002748#1" to="128396190#2"/>
    <trip id="truck260" type="truck_truck" depart="3583.41" departLane="best" from="36892597#2" to="-339201177#5"/>
    <trip id="truck261" type="truck_truck" depart="3597.19" departLane="best" from="225400578#2" to="61583423#1"/>
</routes>
