<?xml version="1.0" encoding="UTF-8"?>

<!-- generated on 04/03/21 23:28:20 by Eclipse SUMO duarouter Version 1.8.0
<configuration xmlns:xsi="http://www.w3.org/2001/XMLSchema-instance" xsi:noNamespaceSchemaLocation="http://sumo.dlr.de/xsd/duarouterConfiguration.xsd">

    <input>
        <net-file value="C:\Users\Arkonaire\Sumo\2021-04-03-23-27-18\osm.net.xml"/>
        <route-files value="C:\Users\Arkonaire\Sumo\2021-04-03-23-27-18\osm.motorcycle.trips.xml"/>
    </input>

    <output>
        <output-file value="C:\Users\Arkonaire\Sumo\2021-04-03-23-27-18\osm.motorcycle.trips.xml.tmp"/>
        <write-trips value="true"/>
    </output>

    <time>
        <begin value="0"/>
        <end value="3600"/>
    </time>

    <report>
        <no-warnings value="true"/>
        <ignore-errors value="true"/>
        <no-step-log value="true"/>
    </report>

</configuration>
-->

<routes xmlns:xsi="http://www.w3.org/2001/XMLSchema-instance" xsi:noNamespaceSchemaLocation="http://sumo.dlr.de/xsd/routes_file.xsd">
    <vType id="moto_motorcycle" vClass="motorcycle"/>
    <trip id="moto0" type="moto_motorcycle" depart="0.00" departLane="best" from="28016312#0" to="-156364570#0"/>
    <trip id="moto1" type="moto_motorcycle" depart="27.56" departLane="best" from="-454285423#4" to="-36892597#0"/>
    <trip id="moto2" type="moto_motorcycle" depart="55.13" departLane="best" from="35578559" to="339201177#3"/>
    <trip id="moto3" type="moto_motorcycle" depart="82.69" departLane="best" from="492340367#0" to="-194962375#1"/>
    <trip id="moto4" type="moto_motorcycle" depart="110.26" departLane="best" departSpeed="max" from="165415464#0" to="-158023913#0"/>
    <trip id="moto5" type="moto_motorcycle" depart="137.82" departLane="best" from="-339201177#5" to="23013165#2"/>
    <trip id="moto6" type="moto_motorcycle" depart="165.39" departLane="best" from="-153698390#1" to="-339201177#0"/>
    <trip id="moto7" type="moto_motorcycle" depart="192.95" departLane="best" from="301167584#0" to="23813206#2"/>
    <trip id="moto8" type="moto_motorcycle" depart="220.52" departLane="best" from="-339201185" to="25294728"/>
    <trip id="moto9" type="moto_motorcycle" depart="248.08" departLane="best" from="4610362#0" to="-128396190#0"/>
    <trip id="moto11" type="moto_motorcycle" depart="303.21" departLane="best" from="-62363401" to="-24243101"/>
    <trip id="moto12" type="moto_motorcycle" depart="330.78" departLane="best" from="72157174#1" to="112128418#1"/>
    <trip id="moto13" type="moto_motorcycle" depart="358.34" departLane="best" from="-195397561#6" to="-195397561#1"/>
    <trip id="moto14" type="moto_motorcycle" depart="385.91" departLane="best" from="4610600" to="28016312#1"/>
    <trip id="moto16" type="moto_motorcycle" depart="441.04" departLane="best" from="23013165#1" to="831659093#0"/>
    <trip id="moto17" type="moto_motorcycle" depart="468.60" departLane="best" departSpeed="max" from="122820534#0" to="23852053#1"/>
    <trip id="moto18" type="moto_motorcycle" depart="496.16" departLane="best" from="4610375" to="30721660#0"/>
    <trip id="moto19" type="moto_motorcycle" depart="523.73" departLane="best" from="4613308#3" to="24913519#2"/>
    <trip id="moto20" type="moto_motorcycle" depart="551.29" departLane="best" from="339201177#2" to="-168937986#0"/>
    <trip id="moto21" type="moto_motorcycle" depart="578.86" departLane="best" departSpeed="max" from="-34848160#3" to="-541295974"/>
    <trip id="moto22" type="moto_motorcycle" depart="606.42" departLane="best" from="-194962375#1" to="-387892378"/>
    <trip id="moto23" type="moto_motorcycle" depart="633.99" departLane="best" departSpeed="max" from="-202156991#2" to="-465376254"/>
    <trip id="moto24" type="moto_motorcycle" depart="661.55" departLane="best" from="268002748#0" to="128396190#3"/>
    <trip id="moto25" type="moto_motorcycle" depart="689.12" departLane="best" from="112128419#2" to="-339201177#5"/>
    <trip id="moto26" type="moto_motorcycle" depart="716.68" departLane="best" from="289966281" to="289966281"/>
    <trip id="moto27" type="moto_motorcycle" depart="744.25" departLane="best" from="-24993933#4" to="370359204#0"/>
    <trip id="moto28" type="moto_motorcycle" depart="771.81" departLane="best" from="-24243107#1" to="156364570#0"/>
    <trip id="moto29" type="moto_motorcycle" depart="799.38" departLane="best" from="234463931#3" to="339201219"/>
    <trip id="moto30" type="moto_motorcycle" depart="826.94" departLane="best" from="4610479#1" to="4610351#0"/>
    <trip id="moto31" type="moto_motorcycle" depart="854.51" departLane="best" from="-35578576#0" to="-158023913#0"/>
    <trip id="moto32" type="moto_motorcycle" depart="882.07" departLane="best" from="-51167934#3" to="-4610600"/>
    <trip id="moto33" type="moto_motorcycle" depart="909.64" departLane="best" from="-339201177#2" to="61584187#3"/>
    <trip id="moto34" type="moto_motorcycle" depart="937.20" departLane="best" from="30721660#0" to="168937986#3"/>
    <trip id="moto36" type="moto_motorcycle" depart="992.33" departLane="best" departSpeed="max" from="-4396823" to="-4402228"/>
    <trip id="moto37" type="moto_motorcycle" depart="1019.89" departLane="best" from="234463931#5" to="-4610472#4"/>
    <trip id="moto38" type="moto_motorcycle" depart="1047.46" departLane="best" from="24241797#0" to="51167934#2"/>
    <trip id="moto39" type="moto_motorcycle" depart="1075.02" departLane="best" from="84960597#0" to="23121445#1"/>
    <trip id="moto40" type="moto_motorcycle" depart="1102.59" departLane="best" from="-195397561#3" to="-168937986#0"/>
    <trip id="moto41" type="moto_motorcycle" depart="1130.15" departLane="best" from="-23121445#0" to="30721660#5"/>
    <trip id="moto42" type="moto_motorcycle" depart="1157.72" departLane="best" departSpeed="max" from="454285423#0" to="183415643"/>
    <trip id="moto43" type="moto_motorcycle" depart="1185.28" departLane="best" from="-188914559" to="156364570#1"/>
    <trip id="moto44" type="moto_motorcycle" depart="1212.85" departLane="best" from="84960597#0" to="234463931#5"/>
    <trip id="moto45" type="moto_motorcycle" depart="1240.41" departLane="best" from="77348147" to="465376239"/>
    <trip id="moto46" type="moto_motorcycle" depart="1267.98" departLane="best" departSpeed="max" from="-11483007#2" to="35578576#2"/>
    <trip id="moto47" type="moto_motorcycle" depart="1295.54" departLane="best" from="312357351#0" to="23809678#1"/>
    <trip id="moto48" type="moto_motorcycle" depart="1323.11" departLane="best" from="-23121445#1" to="19002363#6"/>
    <trip id="moto49" type="moto_motorcycle" depart="1350.67" departLane="best" from="465376254" to="-4610472#4"/>
    <trip id="moto51" type="moto_motorcycle" depart="1405.80" departLane="best" from="541295978#1" to="465376255#2"/>
    <trip id="moto53" type="moto_motorcycle" depart="1460.93" departLane="best" from="24913519#1" to="-24241797#3"/>
    <trip id="moto54" type="moto_motorcycle" depart="1488.49" departLane="best" from="437325047#0" to="234463931#6"/>
    <trip id="moto55" type="moto_motorcycle" depart="1516.06" departLane="best" from="-128396190#1" to="61583423#0"/>
    <trip id="moto56" type="moto_motorcycle" depart="1543.62" departLane="best" from="465376255#2" to="61584187#4"/>
    <trip id="moto57" type="moto_motorcycle" depart="1571.19" departLane="best" from="-195397541#1" to="202157002#1"/>
    <trip id="moto58" type="moto_motorcycle" depart="1598.75" departLane="best" from="-19002363#2" to="437325047#3"/>
    <trip id="moto59" type="moto_motorcycle" depart="1626.32" departLane="best" from="19002403#1" to="23852053#0"/>
    <trip id="moto60" type="moto_motorcycle" depart="1653.88" departLane="best" departSpeed="max" from="-4396823" to="465398529#1"/>
    <trip id="moto61" type="moto_motorcycle" depart="1681.45" departLane="best" departSpeed="max" from="165415464#0" to="-339201185"/>
    <trip id="moto62" type="moto_motorcycle" depart="1709.01" departLane="best" from="23121445#0" to="370359204#1"/>
    <trip id="moto63" type="moto_motorcycle" depart="1736.58" departLane="best" from="-31313667#2" to="-751595928#1"/>
    <trip id="moto65" type="moto_motorcycle" depart="1791.71" departLane="best" from="168940071#1" to="234463928#1"/>
    <trip id="moto66" type="moto_motorcycle" depart="1819.27" departLane="best" from="-23121445#5" to="-36892597#1"/>
    <trip id="moto67" type="moto_motorcycle" depart="1846.84" departLane="best" from="-6228081" to="25294728"/>
    <trip id="moto68" type="moto_motorcycle" depart="1874.40" departLane="best" from="-35578576#0" to="-35578576#2"/>
    <trip id="moto69" type="moto_motorcycle" depart="1901.96" departLane="best" from="-19002363#3" to="30721662#1"/>
    <trip id="moto70" type="moto_motorcycle" depart="1929.53" departLane="best" from="-35578576#0" to="534588621#0"/>
    <trip id="moto71" type="moto_motorcycle" depart="1957.09" departLane="best" from="4613308#2" to="-188914559"/>
    <trip id="moto73" type="moto_motorcycle" depart="2012.22" departLane="best" from="-339201177#3" to="-234463931#3"/>
    <trip id="moto74" type="moto_motorcycle" depart="2039.79" departLane="best" from="61583424#0" to="24243107#1"/>
    <trip id="moto75" type="moto_motorcycle" depart="2067.35" departLane="best" from="19002363#8" to="4610355#2"/>
    <trip id="moto77" type="moto_motorcycle" depart="2122.48" departLane="best" from="-202156991#0" to="19002363#3"/>
    <trip id="moto78" type="moto_motorcycle" depart="2150.05" departLane="best" departSpeed="max" from="165415464#0" to="195411604"/>
    <trip id="moto79" type="moto_motorcycle" depart="2177.61" departLane="best" from="34848160#1" to="339201177#2"/>
    <trip id="moto80" type="moto_motorcycle" depart="2205.18" departLane="best" from="83517334#2" to="-195397561#3"/>
    <trip id="moto81" type="moto_motorcycle" depart="2232.74" departLane="best" from="156364556#1" to="112128418#2"/>
    <trip id="moto82" type="moto_motorcycle" depart="2260.31" departLane="best" from="4613308#3" to="-454285423#0"/>
    <trip id="moto84" type="moto_motorcycle" depart="2315.44" departLane="best" departSpeed="max" from="165415464#0" to="-492340367#0"/>
    <trip id="moto85" type="moto_motorcycle" depart="2343.00" departLane="best" from="168940071#3" to="465376239"/>
    <trip id="moto86" type="moto_motorcycle" depart="2370.56" departLane="best" from="23121445#5" to="-168937986#3"/>
    <trip id="moto88" type="moto_motorcycle" depart="2425.69" departLane="best" from="756306892" to="606078071#3"/>
    <trip id="moto89" type="moto_motorcycle" depart="2453.26" departLane="best" from="4611698#1" to="-24993933#0"/>
    <trip id="moto90" type="moto_motorcycle" depart="2480.82" departLane="best" from="153698390#1" to="-168940071#2"/>
    <trip id="moto91" type="moto_motorcycle" depart="2508.39" departLane="best" departSpeed="max" from="122820534#0" to="83517336#0"/>
    <trip id="moto92" type="moto_motorcycle" depart="2535.95" departLane="best" departSpeed="max" from="-4396823" to="4610355#2"/>
    <trip id="moto93" type="moto_motorcycle" depart="2563.52" departLane="best" from="171826985#1" to="188914559"/>
    <trip id="moto94" type="moto_motorcycle" depart="2591.08" departLane="best" from="72157174#1" to="84960595"/>
    <trip id="moto95" type="moto_motorcycle" depart="2618.65" departLane="best" from="234463931#2" to="35578576#1"/>
    <trip id="moto97" type="moto_motorcycle" depart="2673.78" departLane="best" from="23121445#1" to="42103020#0"/>
    <trip id="moto98" type="moto_motorcycle" depart="2701.34" departLane="best" from="-168942727#1" to="24993933#1"/>
    <trip id="moto99" type="moto_motorcycle" depart="2728.91" departLane="best" from="195411602#1" to="46140376#0"/>
    <trip id="moto100" type="moto_motorcycle" depart="2756.47" departLane="best" from="-24241797#3" to="743631784"/>
    <trip id="moto102" type="moto_motorcycle" depart="2811.60" departLane="best" from="24243092#1" to="339201177#3"/>
    <trip id="moto103" type="moto_motorcycle" depart="2839.16" departLane="best" from="-36892597#0" to="-23121445#3"/>
    <trip id="moto104" type="moto_motorcycle" depart="2866.73" departLane="best" from="490365295#1" to="-4402228"/>
    <trip id="moto105" type="moto_motorcycle" depart="2894.29" departLane="best" from="24243092#1" to="30721660#1"/>
    <trip id="moto106" type="moto_motorcycle" depart="2921.86" departLane="best" from="15971189" to="24993933#1"/>
    <trip id="moto107" type="moto_motorcycle" depart="2949.42" departLane="best" from="-316746323#2" to="35578576#0"/>
    <trip id="moto108" type="moto_motorcycle" depart="2976.99" departLane="best" from="-36892597#2" to="168937986#3"/>
    <trip id="moto109" type="moto_motorcycle" depart="3004.55" departLane="best" from="30721662#2" to="-6227658#3"/>
    <trip id="moto110" type="moto_motorcycle" depart="3032.12" departLane="best" from="-51167934#3" to="427637455"/>
    <trip id="moto111" type="moto_motorcycle" depart="3059.68" departLane="best" from="-19002363#4" to="195401006"/>
    <trip id="moto112" type="moto_motorcycle" depart="3087.25" departLane="best" from="84960597#1" to="84960595"/>
    <trip id="moto113" type="moto_motorcycle" depart="3114.81" departLane="best" from="4773465#2" to="4773465#2"/>
    <trip id="moto114" type="moto_motorcycle" depart="3142.38" departLane="best" from="4610472#1" to="34848160#3"/>
    <trip id="moto115" type="moto_motorcycle" depart="3169.94" departLane="best" from="4610362#4" to="-6227658#2"/>
    <trip id="moto116" type="moto_motorcycle" depart="3197.51" departLane="best" from="30721660#4" to="61584187#1"/>
    <trip id="moto117" type="moto_motorcycle" depart="3225.07" departLane="best" from="-234463931#5" to="-23121445#1"/>
    <trip id="moto118" type="moto_motorcycle" depart="3252.64" departLane="best" from="-225400578#1" to="24241762#1"/>
    <trip id="moto119" type="moto_motorcycle" depart="3280.20" departLane="best" from="-454285423#3" to="28016312#1"/>
    <trip id="moto120" type="moto_motorcycle" depart="3307.76" departLane="best" from="340498976#2" to="-339201177#2"/>
    <trip id="moto121" type="moto_motorcycle" depart="3335.33" departLane="best" from="25302636#1" to="-4610472#4"/>
    <trip id="moto122" type="moto_motorcycle" depart="3362.89" departLane="best" from="195397561#1" to="534588621#0"/>
    <trip id="moto123" type="moto_motorcycle" depart="3390.46" departLane="best" from="4610600" to="-195397541#1"/>
    <trip id="moto124" type="moto_motorcycle" depart="3418.02" departLane="best" departSpeed="max" from="165415464#0" to="-465376254"/>
    <trip id="moto125" type="moto_motorcycle" depart="3445.59" departLane="best" departSpeed="max" from="-111251382#3" to="454285423#3"/>
    <trip id="moto126" type="moto_motorcycle" depart="3473.15" departLane="best" from="35578576#1" to="23852053#1"/>
    <trip id="moto127" type="moto_motorcycle" depart="3500.72" departLane="best" departSpeed="max" from="168937986#0" to="-128396190#0"/>
    <trip id="moto128" type="moto_motorcycle" depart="3528.28" departLane="best" from="534588621#1" to="23813206#2"/>
    <trip id="moto129" type="moto_motorcycle" depart="3555.85" departLane="best" departSpeed="max" from="-23813206#2" to="-234463931#0"/>
    <trip id="moto130" type="moto_motorcycle" depart="3583.41" departLane="best" departSpeed="max" from="-4790825#2" to="51167934#4"/>
</routes>
