<?xml version="1.0" encoding="UTF-8"?>

<!-- generated on 04/03/21 23:28:19 by Eclipse SUMO duarouter Version 1.8.0
<configuration xmlns:xsi="http://www.w3.org/2001/XMLSchema-instance" xsi:noNamespaceSchemaLocation="http://sumo.dlr.de/xsd/duarouterConfiguration.xsd">

    <input>
        <net-file value="C:\Users\Arkonaire\Sumo\2021-04-03-23-27-18\osm.net.xml"/>
        <route-files value="C:\Users\Arkonaire\Sumo\2021-04-03-23-27-18\osm.motorcycle.trips.xml"/>
    </input>

    <output>
        <output-file value="routes.rou.xml"/>
        <alternatives-output value="routes.rou.alt.xml"/>
    </output>

    <time>
        <begin value="0"/>
        <end value="3600"/>
    </time>

    <report>
        <no-warnings value="true"/>
        <ignore-errors value="true"/>
        <no-step-log value="true"/>
    </report>

</configuration>
-->

<routes xmlns:xsi="http://www.w3.org/2001/XMLSchema-instance" xsi:noNamespaceSchemaLocation="http://sumo.dlr.de/xsd/routes_file.xsd">
    <vType id="moto_motorcycle" vClass="motorcycle"/>
    <vehicle id="moto0" type="moto_motorcycle" depart="0.00" departLane="best">
        <route edges="28016312#0 28016312#1 -156364570#3 -156364570#1 -156364570#0"/>
    </vehicle>
    <vehicle id="moto1" type="moto_motorcycle" depart="27.56" departLane="best">
        <route edges="-454285423#4 454285423#4 -225400578#2 -225400578#1 -437325047#3 -437325047#2 -437325047#0 4610362#0 4610362#1 4610362#2 4610362#3 4610362#4 4610362#5 4610362#6 4610362#7 4610362#8 30721662#0 30721662#1 30721662#2 30721662#3 831659093#0 831659093#1 23809670#1 23809670#2 23809670#3 28016312#0 28016312#1 -156364570#3 -156364570#1 -156364570#0 -77348147 -387892378 -370359204#1 -370359204#0 -743631784 -316746323#2 -316746323#0 46140376#0 46140376#1 46140376#2 -84960597#1 -84960597#0 -36892597#2 -36892597#1 -36892597#0"/>
    </vehicle>
    <vehicle id="moto2" type="moto_motorcycle" depart="55.13" departLane="best">
        <route edges="35578559 -195397541#0 4610476#2 4610476#3 15977422#0 340498976#2 340498976#3 340498976#6 340498976#8 340498976#10 83517339 -4610480 4610600 15971189 339201177#0 339201177#1 339201177#2 339201177#3"/>
    </vehicle>
    <vehicle id="moto3" type="moto_motorcycle" depart="82.69" departLane="best">
        <route edges="492340367#0 -492340367#0 -339201185 24243101 24243107#0 24243107#1 24243107#2 437325054#0 -437325048#1 -560370523 -437325047#5 -437325047#3 -437325047#2 -437325047#0 4610362#0 4610362#1 4610362#2 4610362#3 4610362#4 4610362#5 4610362#6 4610362#7 4610362#8 30721662#0 30721662#1 30721662#2 30721662#3 831659093#0 831659093#1 23809670#1 23809670#2 23809670#3 28016312#0 28016312#1 156364556#1 202157002#1 202157002#2 -534588621#1 -534588621#0 606078071#0 606078071#3 328920970 751595929#0 751595929#1 194962375#1 -194962375#1"/>
    </vehicle>
    <vehicle id="moto4" type="moto_motorcycle" depart="110.26" departLane="best" departSpeed="max">
        <route edges="165415464#0 -437325054#1 -24243107#2 168940071#0 168940071#1 168940071#2 168940071#3 42103020#0 42103020#2 541295978#1 389705415#1 -541295974 6228081 -222328410 -465376254 -4402228 190447768#2 195411602#1 465376240#0 195411604 -158023913#5 -158023913#1 -158023913#0"/>
    </vehicle>
    <vehicle id="moto5" type="moto_motorcycle" depart="137.82" departLane="best">
        <route edges="-339201177#5 339201177#5 23121445#0 23121445#1 23121445#2 23121445#3 23121445#4 23121445#5 831694400 23013165#0 23013165#1 23013165#2"/>
    </vehicle>
    <vehicle id="moto6" type="moto_motorcycle" depart="165.39" departLane="best">
        <route edges="-153698390#1 -541295974 6228081 -222328410 -465376254 -4402228 190447768#2 195411602#1 465376240#0 195411604 83517336#0 83517336#2 83517336#3 83517336#4 340498976#2 340498976#3 340498976#6 340498976#8 340498976#10 83517339 -4610480 4610600 15971189 339201177#0 -339201177#0"/>
    </vehicle>
    <vehicle id="moto7" type="moto_motorcycle" depart="192.95" departLane="best">
        <route edges="301167584#0 112128419#1 112128419#2 -24990040 23813206#0 23813206#1 23813206#2"/>
    </vehicle>
    <vehicle id="moto8" type="moto_motorcycle" depart="220.52" departLane="best">
        <route edges="-339201185 24243101 24243107#0 24243107#1 24243107#2 437325054#0 -437325048#1 -560370523 -437325047#5 -437325047#3 -437325047#2 -437325047#0 4610362#0 4610362#1 4610362#2 4610362#3 4610362#4 4610362#5 4610362#6 4610362#7 4610362#8 30721662#0 30721662#1 30721662#2 30721662#3 831659093#0 831659093#1 23809670#1 23809670#2 23809670#3 28016312#0 28016312#1 -156364570#3 -156364570#1 -156364570#0 -77348147 25294728"/>
    </vehicle>
    <vehicle id="moto9" type="moto_motorcycle" depart="248.08" departLane="best">
        <route edges="4610362#0 4610362#1 4610362#2 4610362#3 4610362#4 4610362#5 4610362#6 4610362#7 4610362#8 30721662#0 30721662#1 30721662#2 30721662#3 831659093#0 831659093#1 23809670#1 23809670#2 23809670#3 28016312#0 28016312#1 156364556#1 202157002#1 202157002#2 -534588621#1 -534588621#0 606078071#0 606078071#3 328920970 751595929#0 751595929#1 194962375#1 194962375#2 -128396190#3 -128396190#2 -128396190#1 -128396190#0"/>
    </vehicle>
    <vehicle id="moto11" type="moto_motorcycle" depart="303.21" departLane="best">
        <route edges="-62363401 -234463928#0 -234463931#5 -234463931#4 -234463931#3 -234463931#2 -234463931#1 -234463931#0 -387892378 -370359204#1 -370359204#0 -743631784 -316746323#2 -316746323#0 -84960595 183415643 46140382 30721660#0 30721660#1 30721660#2 30721660#3 30721660#4 30721660#5 437325047#0 437325047#2 437325047#3 437325047#5 560370523 437325048#0 -437325054#1 -24243107#2 -24243107#1 -24243107#0 -24243101"/>
    </vehicle>
    <vehicle id="moto12" type="moto_motorcycle" depart="330.78" departLane="best">
        <route edges="72157174#1 171826984#2 195401006 195401017#5 139877314#1 112128418#1"/>
    </vehicle>
    <vehicle id="moto13" type="moto_motorcycle" depart="358.34" departLane="best">
        <route edges="-195397561#6 -195397561#3 -195397561#1"/>
    </vehicle>
    <vehicle id="moto14" type="moto_motorcycle" depart="385.91" departLane="best">
        <route edges="4610600 15971189 339201177#0 339201177#1 339201177#2 339201177#3 339201177#4 339201177#5 23121445#0 23121445#1 23121445#2 23121445#3 23121445#4 23121445#5 831694400 23013165#0 23013165#1 23013165#2 4611698#1 202156994#0 4773465#1 4773465#2 4773465#3 490365295#0 490365295#1 -28016312#3 28016312#1"/>
    </vehicle>
    <vehicle id="moto16" type="moto_motorcycle" depart="441.04" departLane="best">
        <route edges="23013165#1 23013165#2 4611698#1 202156994#0 4773465#1 4773465#2 4773465#3 490365295#0 490365295#1 -156364570#3 -156364570#1 -156364570#0 -77348147 -387892378 -370359204#1 -370359204#0 -743631784 -316746323#2 -316746323#0 -84960595 183415643 46140382 30721660#0 30721660#1 30721660#2 30721660#3 30721660#4 30721660#5 4610362#0 4610362#1 4610362#2 4610362#3 4610362#4 4610362#5 4610362#6 4610362#7 4610362#8 30721662#0 30721662#1 30721662#2 30721662#3 831659093#0"/>
    </vehicle>
    <vehicle id="moto17" type="moto_motorcycle" depart="468.60" departLane="best" departSpeed="max">
        <route edges="122820534#0 -122820534#0 4610479#0 4610479#1 22972219#0 35578559 195397541#1 137630045 -339201185 24243101 24243107#0 24243107#1 24243107#2 437325054#0 -437325048#1 -560370523 -437325047#5 -437325047#3 -437325047#2 -437325047#0 4610362#0 4610362#1 4610362#2 4610362#3 23852053#0 23852053#1"/>
    </vehicle>
    <vehicle id="moto18" type="moto_motorcycle" depart="496.16" departLane="best">
        <route edges="4610375 24243107#2 437325054#0 -437325048#1 -560370523 -437325047#5 -437325047#3 -437325047#2 -437325047#0 4610362#0 4610362#1 4610362#2 4610362#3 4610362#4 4610362#5 4610362#6 4610362#7 4610362#8 30721662#0 30721662#1 30721662#2 30721662#3 831659093#0 831659093#1 23809670#1 23809670#2 23809670#3 28016312#0 28016312#1 -156364570#3 -156364570#1 -156364570#0 -77348147 -387892378 -370359204#1 -370359204#0 -743631784 -316746323#2 -316746323#0 -84960595 183415643 46140382 30721660#0"/>
    </vehicle>
    <vehicle id="moto19" type="moto_motorcycle" depart="523.73" departLane="best">
        <route edges="4613308#3 756306892 112128419#1 112128419#2 415280722 195401013#2 195401013#3 24914992#1 171826985#1 171826985#3 24913519#1 24913519#2"/>
    </vehicle>
    <vehicle id="moto20" type="moto_motorcycle" depart="551.29" departLane="best">
        <route edges="339201177#2 -339201177#2 -339201177#1 -339201177#0 -15971189 -4610600 -168937986#4 -168937986#3 -168937986#2 -168937986#0"/>
    </vehicle>
    <vehicle id="moto21" type="moto_motorcycle" depart="578.86" departLane="best" departSpeed="max">
        <route edges="-34848160#3 -34848160#2 -34848160#1 222328410 -6228081 541295974 -541295974"/>
    </vehicle>
    <vehicle id="moto22" type="moto_motorcycle" depart="606.42" departLane="best">
        <route edges="-194962375#1 -194962375#0 -751595929#0 61583424#0 61583424#1 534588621#0 534588621#1 4773465#1 4773465#2 4773465#3 490365295#0 490365295#1 -156364570#3 -156364570#1 -156364570#0 -77348147 -387892378"/>
    </vehicle>
    <vehicle id="moto23" type="moto_motorcycle" depart="633.99" departLane="best" departSpeed="max">
        <route edges="-202156991#2 -202156991#1 -202156991#0 -339201177#5 -339201177#4 -339201177#3 -339201177#2 -339201177#1 -339201177#0 -15971189 -4610600 4610480 83517334#2 22972219#0 35578559 195397541#1 137630045 4610472#0 4610472#1 4610472#2 -465376254"/>
    </vehicle>
    <vehicle id="moto24" type="moto_motorcycle" depart="661.55" departLane="best">
        <route edges="268002748#0 -268002748#0 24914141#5 318282850#2 112128419#1 112128419#2 415280722 195401013#2 195401013#3 24914992#1 171826985#1 171826985#3 -534588621#1 -534588621#0 606078071#0 606078071#3 328920970 751595929#0 751595929#1 194962375#1 194962375#2 -128396190#3 128396190#3"/>
    </vehicle>
    <vehicle id="moto25" type="moto_motorcycle" depart="689.12" departLane="best">
        <route edges="112128419#2 415280722 195401013#2 195401013#3 24914992#1 171826985#1 171826985#3 24913519#1 24913519#2 541763975 202156995#0 202156995#1 4067932#1 339201219 -23121445#5 -23121445#4 -23121445#3 -23121445#2 -23121445#1 -23121445#0 -339201177#5"/>
    </vehicle>
    <vehicle id="moto26" type="moto_motorcycle" depart="716.68" departLane="best">
        <route edges="289966281"/>
    </vehicle>
    <vehicle id="moto27" type="moto_motorcycle" depart="744.25" departLane="best">
        <route edges="-24993933#4 24993933#2 19002357#1 19002363#1 19002363#2 -55741054 -168942727#3 -168942727#2 -168942727#1 -168942727#0 370359204#0"/>
    </vehicle>
    <vehicle id="moto28" type="moto_motorcycle" depart="771.81" departLane="best">
        <route edges="-24243107#1 24243107#1 24243107#2 437325054#0 -437325048#1 -560370523 -437325047#5 -437325047#3 -437325047#2 -437325047#0 4610362#0 4610362#1 4610362#2 4610362#3 4610362#4 4610362#5 4610362#6 4610362#7 4610362#8 30721662#0 30721662#1 30721662#2 30721662#3 831659093#0 831659093#1 23809670#1 23809670#2 23809670#3 28016312#0 28016312#1 -156364570#3 -156364570#1 -156364570#0 -77348147 77348147 156364570#0"/>
    </vehicle>
    <vehicle id="moto29" type="moto_motorcycle" depart="799.38" departLane="best">
        <route edges="234463931#3 -234463931#3 -234463931#2 -234463931#1 -234463931#0 77348147 156364570#0 156364570#1 156364570#2 156364556#1 202157002#1 202157002#2 24913519#1 24913519#2 541763975 202156995#0 202156995#1 4067932#1 339201219"/>
    </vehicle>
    <vehicle id="moto30" type="moto_motorcycle" depart="826.94" departLane="best">
        <route edges="4610479#1 22972219#0 35578559 195397541#1 137630045 -339201185 24243101 24243107#0 24243107#1 24243107#2 437325054#0 -437325048#1 -560370523 -437325047#5 225400578#1 225400578#2 -454285423#4 -454285423#3 -454285423#1 -454285423#0 4610351#0"/>
    </vehicle>
    <vehicle id="moto31" type="moto_motorcycle" depart="854.51" departLane="best">
        <route edges="-35578576#0 22972454 195397561#1 195397561#2 195397561#5 4610472#2 -465376254 -4402228 190447768#2 195411602#1 465376240#0 195411604 -158023913#5 -158023913#1 -158023913#0"/>
    </vehicle>
    <vehicle id="moto32" type="moto_motorcycle" depart="882.07" departLane="best">
        <route edges="-51167934#3 -51167934#1 437325047#5 560370523 437325048#0 -437325054#1 -24243107#2 -24243107#1 -24243107#0 -24243101 339201185 492340367#0 492340367#1 31313667#1 31313667#2 31313667#3 15977422#0 340498976#2 340498976#3 340498976#6 340498976#8 340498976#10 83517339 -4610480 4610600 15971189 339201177#0 -339201177#0 -15971189 -4610600"/>
    </vehicle>
    <vehicle id="moto33" type="moto_motorcycle" depart="909.64" departLane="best">
        <route edges="-339201177#2 339201177#2 339201177#3 339201177#4 339201177#5 23121445#0 23121445#1 23121445#2 23121445#3 23121445#4 23121445#5 541763974 61584187#1 61584187#2 61584187#3"/>
    </vehicle>
    <vehicle id="moto34" type="moto_motorcycle" depart="937.20" departLane="best">
        <route edges="30721660#0 30721660#1 30721660#2 30721660#3 30721660#4 30721660#5 437325047#0 437325047#2 437325047#3 437325047#5 560370523 437325048#0 -437325054#1 -24243107#2 -24243107#1 -24243107#0 -24243101 339201185 492340367#0 492340367#1 31313667#1 31313667#2 31313667#3 15977422#0 340498976#2 340498976#3 340498976#6 340498976#8 340498976#10 83517339 -4610480 -168937986#4 -168937986#3 168937986#3"/>
    </vehicle>
    <vehicle id="moto36" type="moto_motorcycle" depart="992.33" departLane="best" departSpeed="max">
        <route edges="-4396823 -437325054#1 -24243107#2 168940071#0 168940071#1 168940071#2 168940071#3 42103020#0 42103020#2 541295978#1 389705415#1 -541295974 6228081 -222328410 -465376254 -4402228"/>
    </vehicle>
    <vehicle id="moto37" type="moto_motorcycle" depart="1019.89" departLane="best">
        <route edges="234463931#5 -234463931#5 -234463931#4 -234463931#3 -234463931#2 -234463931#1 -234463931#0 -387892378 -370359204#1 -370359204#0 -743631784 -316746323#2 -316746323#0 -84960595 183415643 46140382 30721660#0 30721660#1 30721660#2 30721660#3 30721660#4 30721660#5 437325047#0 437325047#2 437325047#3 437325047#5 560370523 437325048#0 -437325054#1 -24243107#2 -24243107#1 -24243107#0 -24243101 339201185 4610472#0 4610472#1 4610472#2 -4610472#4"/>
    </vehicle>
    <vehicle id="moto38" type="moto_motorcycle" depart="1047.46" departLane="best">
        <route edges="24241797#0 24241797#3 -188914559 -168942727#3 -168942727#2 -168942727#1 -168942727#0 -743631784 -316746323#2 -316746323#0 -84960595 183415643 46140382 30721660#0 30721660#1 30721660#2 30721660#3 30721660#4 30721660#5 437325047#0 437325047#2 437325047#3 51167934#1 51167934#2"/>
    </vehicle>
    <vehicle id="moto39" type="moto_motorcycle" depart="1075.02" departLane="best">
        <route edges="84960597#0 84960597#1 83517332#1 83517332#2 84960595 316746323#0 316746323#1 743631784 370359204#0 370359204#1 370359204#2 77348147 156364570#0 156364570#1 156364570#2 156364556#1 202157002#1 202157002#2 24913519#1 24913519#2 541763975 202156995#0 202156995#1 4067932#1 339201219 -23121445#5 -23121445#4 -23121445#3 -23121445#2 -23121445#1 23121445#1"/>
    </vehicle>
    <vehicle id="moto40" type="moto_motorcycle" depart="1102.59" departLane="best">
        <route edges="-195397561#3 -195397561#1 -195397561#0 35578576#0 35578576#1 35578576#2 83517336#3 83517336#4 340498976#2 340498976#3 340498976#6 340498976#8 340498976#10 83517339 -4610480 -168937986#4 -168937986#3 -168937986#2 -168937986#0"/>
    </vehicle>
    <vehicle id="moto41" type="moto_motorcycle" depart="1130.15" departLane="best">
        <route edges="-23121445#0 23121445#0 23121445#1 23121445#2 23121445#3 23121445#4 23121445#5 831694400 23013165#0 23013165#1 23013165#2 4611698#1 202156994#0 4773465#1 4773465#2 4773465#3 490365295#0 490365295#1 -156364570#3 -156364570#1 -156364570#0 -77348147 -387892378 -370359204#1 -370359204#0 -743631784 -316746323#2 -316746323#0 -84960595 183415643 46140382 30721660#0 30721660#1 30721660#2 30721660#3 30721660#4 30721660#5"/>
    </vehicle>
    <vehicle id="moto42" type="moto_motorcycle" depart="1157.72" departLane="best" departSpeed="max">
        <route edges="454285423#0 -454285423#0 4610351#0 4610351#1 30721660#4 30721660#5 4610362#0 4610362#1 4610362#2 4610362#3 4610362#4 4610362#5 4610362#6 4610362#7 4610362#8 30721662#0 30721662#1 30721662#2 30721662#3 831659093#0 831659093#1 23809670#1 23809670#2 23809670#3 28016312#0 28016312#1 -156364570#3 -156364570#1 -156364570#0 -77348147 -387892378 -370359204#1 -370359204#0 -743631784 -316746323#2 -316746323#0 -84960595 183415643"/>
    </vehicle>
    <vehicle id="moto43" type="moto_motorcycle" depart="1185.28" departLane="best">
        <route edges="-188914559 -62363401 -234463928#0 -234463931#5 -234463931#4 -234463931#3 -234463931#2 -234463931#1 -234463931#0 77348147 156364570#0 156364570#1"/>
    </vehicle>
    <vehicle id="moto44" type="moto_motorcycle" depart="1212.85" departLane="best">
        <route edges="84960597#0 84960597#1 83517332#1 83517332#2 84960595 316746323#0 316746323#1 743631784 370359204#0 370359204#1 370359204#2 25294728 234463931#1 234463931#2 234463931#3 234463931#4 234463931#5"/>
    </vehicle>
    <vehicle id="moto45" type="moto_motorcycle" depart="1240.41" departLane="best">
        <route edges="77348147 156364570#0 -156364570#0 -77348147 -387892378 -370359204#1 -370359204#0 -743631784 -316746323#2 -316746323#0 -84960595 183415643 46140382 30721660#0 30721660#1 30721660#2 30721660#3 30721660#4 30721660#5 437325047#0 437325047#2 437325047#3 437325047#5 560370523 437325048#0 -437325054#1 -24243107#2 168940071#0 168940071#1 168940071#2 168940071#3 42103020#0 42103020#2 541295978#1 389705415#1 -541295974 6228081 -222328410 -465376254 -4402228 190447768#2 195411602#1 465376240#0 195411604 22972195#2 465376239"/>
    </vehicle>
    <vehicle id="moto46" type="moto_motorcycle" depart="1267.98" departLane="best" departSpeed="max">
        <route edges="-11483007#2 83517336#0 83517336#2 -35578576#2 35578576#2"/>
    </vehicle>
    <vehicle id="moto47" type="moto_motorcycle" depart="1295.54" departLane="best">
        <route edges="312357351#0 312357351#1 309479676 128396190#0 128396190#1 128396190#2 128396190#3 -194962375#2 -194962375#1 -194962375#0 -751595929#0 61583424#0 61583424#1 534588621#0 534588621#1 4773465#1 4773465#2 4773465#3 490365295#0 490365295#1 -156364570#3 -156364570#1 -156364570#0 -77348147 -387892378 -370359204#1 -370359204#0 -743631784 -316746323#2 -316746323#0 46140376#0 46140376#1 46140376#2 -84960597#1 -84960597#0 11103418 23809678#1"/>
    </vehicle>
    <vehicle id="moto48" type="moto_motorcycle" depart="1323.11" departLane="best">
        <route edges="-23121445#1 23121445#1 23121445#2 23121445#3 23121445#4 23121445#5 831694400 23013165#0 23013165#1 23013165#2 4611698#1 202156994#0 4773465#1 4773465#2 4773465#3 490365295#0 490365295#1 -156364570#3 -156364570#1 -156364570#0 -77348147 25294728 234463931#1 234463931#2 234463931#3 234463931#4 234463931#5 234463931#6 234463928#1 55741054 19002363#3 19002363#4 19002363#6"/>
    </vehicle>
    <vehicle id="moto49" type="moto_motorcycle" depart="1350.67" departLane="best">
        <route edges="465376254 -4610472#4"/>
    </vehicle>
    <vehicle id="moto51" type="moto_motorcycle" depart="1405.80" departLane="best">
        <route edges="541295978#1 389705415#1 -541295974 6228081 -222328410 -465376254 -4402228 190447768#2 195411602#1 465376240#0 195411604 22972195#2 465376239 465376255#2"/>
    </vehicle>
    <vehicle id="moto53" type="moto_motorcycle" depart="1460.93" departLane="best">
        <route edges="24913519#1 24913519#2 541763975 202156995#0 202156995#1 4067932#1 339201219 831694400 23013165#0 23013165#1 23013165#2 4611698#1 202156994#0 4773465#1 4773465#2 4773465#3 490365295#0 490365295#1 -156364570#3 -156364570#1 -156364570#0 -77348147 25294728 234463931#1 234463931#2 234463931#3 234463931#4 234463931#5 234463931#6 234463928#1 188914559 -24241797#3"/>
    </vehicle>
    <vehicle id="moto54" type="moto_motorcycle" depart="1488.49" departLane="best">
        <route edges="437325047#0 -437325047#0 4610362#0 4610362#1 4610362#2 4610362#3 4610362#4 4610362#5 4610362#6 4610362#7 4610362#8 30721662#0 30721662#1 30721662#2 30721662#3 831659093#0 831659093#1 23809670#1 23809670#2 23809670#3 28016312#0 28016312#1 -156364570#3 -156364570#1 -156364570#0 -77348147 25294728 234463931#1 234463931#2 234463931#3 234463931#4 234463931#5 234463931#6"/>
    </vehicle>
    <vehicle id="moto55" type="moto_motorcycle" depart="1516.06" departLane="best">
        <route edges="-128396190#1 128396190#1 128396190#2 128396190#3 -194962375#2 -194962375#1 -194962375#0 -751595929#0 -328920970 61583423#0"/>
    </vehicle>
    <vehicle id="moto56" type="moto_motorcycle" depart="1543.62" departLane="best">
        <route edges="465376255#2 190447767 190447766#1 190447768#2 195411602#1 465376240#0 195411604 83517336#0 83517336#2 83517336#3 83517336#4 340498976#2 340498976#3 340498976#6 340498976#8 340498976#10 83517339 -4610480 4610600 15971189 339201177#0 339201177#1 339201177#2 339201177#3 339201177#4 339201177#5 23121445#0 23121445#1 23121445#2 23121445#3 23121445#4 23121445#5 541763974 61584187#1 61584187#2 61584187#3 61584187#4"/>
    </vehicle>
    <vehicle id="moto57" type="moto_motorcycle" depart="1571.19" departLane="best">
        <route edges="-195397541#1 195397541#1 137630045 -339201185 24243101 24243107#0 24243107#1 24243107#2 437325054#0 -437325048#1 -560370523 -437325047#5 -437325047#3 -437325047#2 -437325047#0 4610362#0 4610362#1 4610362#2 4610362#3 4610362#4 4610362#5 4610362#6 4610362#7 4610362#8 30721662#0 30721662#1 30721662#2 30721662#3 831659093#0 831659093#1 23809670#1 23809670#2 23809670#3 28016312#0 28016312#1 156364556#1 202157002#1"/>
    </vehicle>
    <vehicle id="moto58" type="moto_motorcycle" depart="1598.75" departLane="best">
        <route edges="-19002363#2 19002363#2 -55741054 -168942727#3 -168942727#2 -168942727#1 -168942727#0 -743631784 -316746323#2 -316746323#0 -84960595 183415643 46140382 30721660#0 30721660#1 30721660#2 30721660#3 30721660#4 30721660#5 437325047#0 437325047#2 437325047#3"/>
    </vehicle>
    <vehicle id="moto59" type="moto_motorcycle" depart="1626.32" departLane="best">
        <route edges="19002403#1 523630409 19002357#1 19002363#1 19002363#2 -55741054 -168942727#3 -168942727#2 -168942727#1 -168942727#0 -743631784 -316746323#2 -316746323#0 -84960595 183415643 46140382 30721660#0 30721660#1 30721660#2 30721660#3 30721660#4 30721660#5 4610362#0 4610362#1 4610362#2 4610362#3 23852053#0"/>
    </vehicle>
    <vehicle id="moto60" type="moto_motorcycle" depart="1653.88" departLane="best" departSpeed="max">
        <route edges="-4396823 465398529#1"/>
    </vehicle>
    <vehicle id="moto61" type="moto_motorcycle" depart="1681.45" departLane="best" departSpeed="max">
        <route edges="165415464#0 -437325054#1 -24243107#2 -24243107#1 -24243107#0 -24243101 339201185 -339201185"/>
    </vehicle>
    <vehicle id="moto62" type="moto_motorcycle" depart="1709.01" departLane="best">
        <route edges="23121445#0 23121445#1 23121445#2 23121445#3 23121445#4 23121445#5 831694400 23013165#0 23013165#1 23013165#2 4611698#1 202156994#0 4773465#1 4773465#2 4773465#3 490365295#0 490365295#1 -156364570#3 -156364570#1 -156364570#0 -77348147 -387892378 -370359204#1 370359204#1"/>
    </vehicle>
    <vehicle id="moto63" type="moto_motorcycle" depart="1736.58" departLane="best">
        <route edges="-31313667#2 31313667#2 31313667#3 15977422#0 340498976#2 340498976#3 340498976#6 340498976#8 340498976#10 83517339 -4610480 4610600 15971189 339201177#0 339201177#1 339201177#2 339201177#3 339201177#4 339201177#5 23121445#0 23121445#1 23121445#2 23121445#3 23121445#4 23121445#5 831694400 23013165#0 23013165#1 23013165#2 4611698#1 202156994#0 -534588621#1 -534588621#0 606078071#0 606078071#3 -562707499 -751595928#1"/>
    </vehicle>
    <vehicle id="moto65" type="moto_motorcycle" depart="1791.71" departLane="best">
        <route edges="168940071#1 -168940071#1 -168940071#0 24243107#2 437325054#0 -437325048#1 -560370523 -437325047#5 -437325047#3 -437325047#2 -437325047#0 4610362#0 4610362#1 4610362#2 4610362#3 4610362#4 4610362#5 4610362#6 4610362#7 4610362#8 30721662#0 30721662#1 30721662#2 30721662#3 831659093#0 831659093#1 23809670#1 23809670#2 23809670#3 28016312#0 28016312#1 -156364570#3 -156364570#1 -156364570#0 -77348147 25294728 234463931#1 234463931#2 234463931#3 234463931#4 234463931#5 234463931#6 234463928#1"/>
    </vehicle>
    <vehicle id="moto66" type="moto_motorcycle" depart="1819.27" departLane="best">
        <route edges="-23121445#5 23121445#5 831694400 23013165#0 23013165#1 23013165#2 4611698#1 202156994#0 4773465#1 4773465#2 4773465#3 490365295#0 490365295#1 -156364570#3 -156364570#1 -156364570#0 -77348147 -387892378 -370359204#1 -370359204#0 -743631784 -316746323#2 -316746323#0 46140376#0 46140376#1 46140376#2 -84960597#1 -84960597#0 -36892597#2 -36892597#1"/>
    </vehicle>
    <vehicle id="moto67" type="moto_motorcycle" depart="1846.84" departLane="best">
        <route edges="-6228081 541295974 30720544#0 30720544#1 -168940071#3 -168940071#2 -168940071#1 -168940071#0 24243107#2 437325054#0 -437325048#1 -560370523 -437325047#5 -437325047#3 -437325047#2 -437325047#0 4610362#0 4610362#1 4610362#2 4610362#3 4610362#4 4610362#5 4610362#6 4610362#7 4610362#8 30721662#0 30721662#1 30721662#2 30721662#3 831659093#0 831659093#1 23809670#1 23809670#2 23809670#3 28016312#0 28016312#1 -156364570#3 -156364570#1 -156364570#0 -77348147 25294728"/>
    </vehicle>
    <vehicle id="moto68" type="moto_motorcycle" depart="1874.40" departLane="best">
        <route edges="-35578576#0 35578576#0 35578576#1 35578576#2 -35578576#2"/>
    </vehicle>
    <vehicle id="moto69" type="moto_motorcycle" depart="1901.96" departLane="best">
        <route edges="-19002363#3 -55741054 -168942727#3 -168942727#2 -168942727#1 -168942727#0 -743631784 -316746323#2 -316746323#0 -84960595 183415643 46140382 30721660#0 30721660#1 30721660#2 30721660#3 30721660#4 30721660#5 4610362#0 4610362#1 4610362#2 4610362#3 4610362#4 4610362#5 4610362#6 4610362#7 4610362#8 30721662#0 30721662#1"/>
    </vehicle>
    <vehicle id="moto70" type="moto_motorcycle" depart="1929.53" departLane="best">
        <route edges="-35578576#0 35578576#0 35578576#1 35578576#2 83517336#3 83517336#4 340498976#2 340498976#3 340498976#6 340498976#8 340498976#10 83517339 -4610480 4610600 15971189 339201177#0 339201177#1 339201177#2 339201177#3 339201177#4 339201177#5 23121445#0 23121445#1 23121445#2 23121445#3 23121445#4 23121445#5 831694400 23013165#0 23013165#1 23013165#2 4611698#1 202156994#0 -534588621#1 -534588621#0 534588621#0"/>
    </vehicle>
    <vehicle id="moto71" type="moto_motorcycle" depart="1957.09" departLane="best">
        <route edges="4613308#2 4613308#3 756306892 112128419#1 112128419#2 -24990040 -188914559"/>
    </vehicle>
    <vehicle id="moto73" type="moto_motorcycle" depart="2012.22" departLane="best">
        <route edges="-339201177#3 339201177#3 339201177#4 339201177#5 23121445#0 23121445#1 23121445#2 23121445#3 23121445#4 23121445#5 831694400 23013165#0 23013165#1 23013165#2 4611698#1 202156994#0 4773465#1 4773465#2 4773465#3 490365295#0 490365295#1 -156364570#3 -156364570#1 -156364570#0 -77348147 25294728 234463931#1 234463931#2 234463931#3 -234463931#3"/>
    </vehicle>
    <vehicle id="moto74" type="moto_motorcycle" depart="2039.79" departLane="best">
        <route edges="61583424#0 61583424#1 534588621#0 534588621#1 4773465#1 4773465#2 4773465#3 490365295#0 490365295#1 -156364570#3 -156364570#1 -156364570#0 -77348147 -387892378 -370359204#1 -370359204#0 -743631784 -316746323#2 -316746323#0 -84960595 183415643 46140382 30721660#0 30721660#1 30721660#2 30721660#3 30721660#4 30721660#5 437325047#0 437325047#2 437325047#3 437325047#5 560370523 437325048#0 -437325054#1 -24243107#2 -24243107#1 24243107#1"/>
    </vehicle>
    <vehicle id="moto75" type="moto_motorcycle" depart="2067.35" departLane="best">
        <route edges="19002363#8 24241790#1 36892597#0 36892597#1 4610355#0 4610355#1 4610355#2"/>
    </vehicle>
    <vehicle id="moto77" type="moto_motorcycle" depart="2122.48" departLane="best">
        <route edges="-202156991#0 23121445#0 23121445#1 23121445#2 23121445#3 23121445#4 23121445#5 831694400 23013165#0 23013165#1 23013165#2 4611698#1 202156994#0 4773465#1 4773465#2 4773465#3 490365295#0 490365295#1 -156364570#3 -156364570#1 -156364570#0 -77348147 25294728 234463931#1 234463931#2 234463931#3 234463931#4 234463931#5 234463931#6 234463928#1 55741054 19002363#3"/>
    </vehicle>
    <vehicle id="moto78" type="moto_motorcycle" depart="2150.05" departLane="best" departSpeed="max">
        <route edges="165415464#0 -437325054#1 -24243107#2 168940071#0 168940071#1 168940071#2 168940071#3 42103020#0 42103020#2 541295978#1 389705415#1 -541295974 6228081 -222328410 -465376254 -4402228 190447768#2 195411602#1 465376240#0 195411604"/>
    </vehicle>
    <vehicle id="moto79" type="moto_motorcycle" depart="2177.61" departLane="best">
        <route edges="34848160#1 -34848160#1 -465376254 -4402228 190447768#2 195411602#1 465376240#0 195411604 83517336#0 83517336#2 83517336#3 83517336#4 340498976#2 340498976#3 340498976#6 340498976#8 340498976#10 83517339 -4610480 4610600 15971189 339201177#0 339201177#1 339201177#2"/>
    </vehicle>
    <vehicle id="moto80" type="moto_motorcycle" depart="2205.18" departLane="best">
        <route edges="83517334#2 22972219#0 35578559 195397541#1 137630045 4610472#0 4610472#1 -195397561#6 -195397561#3"/>
    </vehicle>
    <vehicle id="moto81" type="moto_motorcycle" depart="2232.74" departLane="best">
        <route edges="156364556#1 202157002#1 202157002#2 72157174#1 171826984#2 195401006 195401017#5 139877314#1 112128418#1 112128418#2"/>
    </vehicle>